
---------- Begin Simulation Statistics ----------
l2_hits                                       1223694                       # Number of l2 cache hits
l2_misses                                      250465                       # Number of l2 cache misses
l2_accesses                                   1474159                       # Number of l2 cache accesses
sim_seconds                                  0.243771                       # Number of seconds simulated
sim_ticks                                243771393852                       # Number of ticks simulated
final_tick                               243771393852                       # Number of ticks from beginning of simulation (restored from checkpoints and never reset)
sim_freq                                 1000000000000                       # Frequency of simulated ticks
host_inst_rate                                  33684                       # Simulator instruction rate (inst/s)
host_op_rate                                    50663                       # Simulator op (including micro ops) rate (op/s)
host_tick_rate                              196573729                       # Simulator tick rate (ticks/s)
host_mem_usage                                4965256                       # Number of bytes of host memory used
host_seconds                                  1240.10                       # Real time elapsed on the host
sim_insts                                    41771213                       # Number of instructions simulated
sim_ops                                      62827512                       # Number of ops (including micro ops) simulated
system.voltage_domain.voltage                       1                       # Voltage in Volts
system.clk_domain.clock                          1000                       # Clock period in ticks
system.mem_ctrls00.pwrStateResidencyTicks::UNDEFINED 243771393852                       # Cumulative time (in ticks) in various power states
system.mem_ctrls00.bytes_read::ruby.dir_cntrl0     37890112                       # Number of bytes read from this memory
system.mem_ctrls00.bytes_read::total         37890112                       # Number of bytes read from this memory
system.mem_ctrls00.bytes_written::ruby.dir_cntrl0      2031360                       # Number of bytes written to this memory
system.mem_ctrls00.bytes_written::total       2031360                       # Number of bytes written to this memory
system.mem_ctrls00.num_reads::ruby.dir_cntrl0       592033                       # Number of read requests responded to by this memory
system.mem_ctrls00.num_reads::total            592033                       # Number of read requests responded to by this memory
system.mem_ctrls00.num_writes::ruby.dir_cntrl0        31740                       # Number of write requests responded to by this memory
system.mem_ctrls00.num_writes::total            31740                       # Number of write requests responded to by this memory
system.mem_ctrls00.bw_read::ruby.dir_cntrl0    155432971                       # Total read bandwidth from this memory (bytes/s)
system.mem_ctrls00.bw_read::total           155432971                       # Total read bandwidth from this memory (bytes/s)
system.mem_ctrls00.bw_write::ruby.dir_cntrl0      8333053                       # Write bandwidth from this memory (bytes/s)
system.mem_ctrls00.bw_write::total            8333053                       # Write bandwidth from this memory (bytes/s)
system.mem_ctrls00.bw_total::ruby.dir_cntrl0    163766024                       # Total bandwidth to/from this memory (bytes/s)
system.mem_ctrls00.bw_total::total          163766024                       # Total bandwidth to/from this memory (bytes/s)
system.mem_ctrls00.memReq                      623773                       # Total number of memory requests
system.mem_ctrls00.memRead                     592033                       # Number of memory reads
system.mem_ctrls00.memWrite                     31740                       # Number of memory writes
system.mem_ctrls00.memWaitCycles               623773                       # Delay stalled at the head of the bank queue
system.mem_ctrls00.totalStalls                 623773                       # Total number of stall cycles
system.mem_ctrls00.stallsPerReq                     1                       # Expected number of stall cycles per request
system.mem_ctrls00.memBankCount          |      556266     89.18%     89.18% |           0      0.00%     89.18% |           0      0.00%     89.18% |           0      0.00%     89.18% |           0      0.00%     89.18% |           0      0.00%     89.18% |           0      0.00%     89.18% |           0      0.00%     89.18% |       28385      4.55%     93.73% |           0      0.00%     93.73% |           0      0.00%     93.73% |           0      0.00%     93.73% |           0      0.00%     93.73% |           0      0.00%     93.73% |           0      0.00%     93.73% |           0      0.00%     93.73% |       19223      3.08%     96.81% |           0      0.00%     96.81% |           0      0.00%     96.81% |           0      0.00%     96.81% |           0      0.00%     96.81% |           0      0.00%     96.81% |           0      0.00%     96.81% |           0      0.00%     96.81% |       19899      3.19%    100.00% |           0      0.00%    100.00% |           0      0.00%    100.00% |           0      0.00%    100.00% |           0      0.00%    100.00% |           0      0.00%    100.00% |           0      0.00%    100.00% |           0      0.00%    100.00% # Number of accesses per bank
system.mem_ctrls00.memBankCount::total         623773                       # Number of accesses per bank
system.mem_ctrls01.pwrStateResidencyTicks::UNDEFINED 243771393852                       # Cumulative time (in ticks) in various power states
system.mem_ctrls01.bytes_written::ruby.dir_cntrl1     35436416                       # Number of bytes written to this memory
system.mem_ctrls01.bytes_written::total      35436416                       # Number of bytes written to this memory
system.mem_ctrls01.num_writes::ruby.dir_cntrl1       553694                       # Number of write requests responded to by this memory
system.mem_ctrls01.num_writes::total           553694                       # Number of write requests responded to by this memory
system.mem_ctrls01.bw_write::ruby.dir_cntrl1    145367409                       # Write bandwidth from this memory (bytes/s)
system.mem_ctrls01.bw_write::total          145367409                       # Write bandwidth from this memory (bytes/s)
system.mem_ctrls01.bw_total::ruby.dir_cntrl1    145367409                       # Total bandwidth to/from this memory (bytes/s)
system.mem_ctrls01.bw_total::total          145367409                       # Total bandwidth to/from this memory (bytes/s)
system.mem_ctrls01.memReq                      553694                       # Total number of memory requests
system.mem_ctrls01.memWrite                    553694                       # Number of memory writes
system.mem_ctrls01.memWaitCycles               553694                       # Delay stalled at the head of the bank queue
system.mem_ctrls01.totalStalls                 553694                       # Total number of stall cycles
system.mem_ctrls01.stallsPerReq                     1                       # Expected number of stall cycles per request
system.mem_ctrls01.memBankCount          |      532300     96.14%     96.14% |           0      0.00%     96.14% |           0      0.00%     96.14% |           0      0.00%     96.14% |           0      0.00%     96.14% |           0      0.00%     96.14% |           0      0.00%     96.14% |           0      0.00%     96.14% |        8648      1.56%     97.70% |           0      0.00%     97.70% |           0      0.00%     97.70% |           0      0.00%     97.70% |           0      0.00%     97.70% |           0      0.00%     97.70% |           0      0.00%     97.70% |           0      0.00%     97.70% |        6174      1.12%     98.81% |           0      0.00%     98.81% |           0      0.00%     98.81% |           0      0.00%     98.81% |           0      0.00%     98.81% |           0      0.00%     98.81% |           0      0.00%     98.81% |           0      0.00%     98.81% |        6572      1.19%    100.00% |           0      0.00%    100.00% |           0      0.00%    100.00% |           0      0.00%    100.00% |           0      0.00%    100.00% |           0      0.00%    100.00% |           0      0.00%    100.00% |           0      0.00%    100.00% # Number of accesses per bank
system.mem_ctrls01.memBankCount::total         553694                       # Number of accesses per bank
system.mem_ctrls02.pwrStateResidencyTicks::UNDEFINED 243771393852                       # Cumulative time (in ticks) in various power states
system.mem_ctrls02.bytes_written::ruby.dir_cntrl2      2021184                       # Number of bytes written to this memory
system.mem_ctrls02.bytes_written::total       2021184                       # Number of bytes written to this memory
system.mem_ctrls02.num_writes::ruby.dir_cntrl2        31581                       # Number of write requests responded to by this memory
system.mem_ctrls02.num_writes::total            31581                       # Number of write requests responded to by this memory
system.mem_ctrls02.bw_write::ruby.dir_cntrl2      8291309                       # Write bandwidth from this memory (bytes/s)
system.mem_ctrls02.bw_write::total            8291309                       # Write bandwidth from this memory (bytes/s)
system.mem_ctrls02.bw_total::ruby.dir_cntrl2      8291309                       # Total bandwidth to/from this memory (bytes/s)
system.mem_ctrls02.bw_total::total            8291309                       # Total bandwidth to/from this memory (bytes/s)
system.mem_ctrls02.memReq                       31581                       # Total number of memory requests
system.mem_ctrls02.memWrite                     31581                       # Number of memory writes
system.mem_ctrls02.memWaitCycles                31581                       # Delay stalled at the head of the bank queue
system.mem_ctrls02.totalStalls                  31581                       # Total number of stall cycles
system.mem_ctrls02.stallsPerReq                     1                       # Expected number of stall cycles per request
system.mem_ctrls02.memBankCount          |       10177     32.23%     32.23% |           0      0.00%     32.23% |           0      0.00%     32.23% |           0      0.00%     32.23% |           0      0.00%     32.23% |           0      0.00%     32.23% |           0      0.00%     32.23% |           0      0.00%     32.23% |        8687     27.51%     59.73% |           0      0.00%     59.73% |           0      0.00%     59.73% |           0      0.00%     59.73% |           0      0.00%     59.73% |           0      0.00%     59.73% |           0      0.00%     59.73% |           0      0.00%     59.73% |        6168     19.53%     79.26% |           0      0.00%     79.26% |           0      0.00%     79.26% |           0      0.00%     79.26% |           0      0.00%     79.26% |           0      0.00%     79.26% |           0      0.00%     79.26% |           0      0.00%     79.26% |        6549     20.74%    100.00% |           0      0.00%    100.00% |           0      0.00%    100.00% |           0      0.00%    100.00% |           0      0.00%    100.00% |           0      0.00%    100.00% |           0      0.00%    100.00% |           0      0.00%    100.00% # Number of accesses per bank
system.mem_ctrls02.memBankCount::total          31581                       # Number of accesses per bank
system.mem_ctrls03.pwrStateResidencyTicks::UNDEFINED 243771393852                       # Cumulative time (in ticks) in various power states
system.mem_ctrls03.bytes_read::ruby.dir_cntrl3     10019968                       # Number of bytes read from this memory
system.mem_ctrls03.bytes_read::total         10019968                       # Number of bytes read from this memory
system.mem_ctrls03.bytes_written::ruby.dir_cntrl3      2003520                       # Number of bytes written to this memory
system.mem_ctrls03.bytes_written::total       2003520                       # Number of bytes written to this memory
system.mem_ctrls03.num_reads::ruby.dir_cntrl3       156562                       # Number of read requests responded to by this memory
system.mem_ctrls03.num_reads::total            156562                       # Number of read requests responded to by this memory
system.mem_ctrls03.num_writes::ruby.dir_cntrl3        31305                       # Number of write requests responded to by this memory
system.mem_ctrls03.num_writes::total            31305                       # Number of write requests responded to by this memory
system.mem_ctrls03.bw_read::ruby.dir_cntrl3     41103953                       # Total read bandwidth from this memory (bytes/s)
system.mem_ctrls03.bw_read::total            41103953                       # Total read bandwidth from this memory (bytes/s)
system.mem_ctrls03.bw_write::ruby.dir_cntrl3      8218848                       # Write bandwidth from this memory (bytes/s)
system.mem_ctrls03.bw_write::total            8218848                       # Write bandwidth from this memory (bytes/s)
system.mem_ctrls03.bw_total::ruby.dir_cntrl3     49322801                       # Total bandwidth to/from this memory (bytes/s)
system.mem_ctrls03.bw_total::total           49322801                       # Total bandwidth to/from this memory (bytes/s)
system.mem_ctrls03.memReq                      187867                       # Total number of memory requests
system.mem_ctrls03.memRead                     156562                       # Number of memory reads
system.mem_ctrls03.memWrite                     31305                       # Number of memory writes
system.mem_ctrls03.memWaitCycles               187867                       # Delay stalled at the head of the bank queue
system.mem_ctrls03.totalStalls                 187867                       # Total number of stall cycles
system.mem_ctrls03.stallsPerReq                     1                       # Expected number of stall cycles per request
system.mem_ctrls03.memBankCount          |       26283     13.99%     13.99% |        8364      4.45%     18.44% |        8338      4.44%     22.88% |        8411      4.48%     27.36% |           0      0.00%     27.36% |           0      0.00%     27.36% |           0      0.00%     27.36% |           0      0.00%     27.36% |       23342     12.42%     39.78% |        8282      4.41%     44.19% |        8459      4.50%     48.69% |        8282      4.41%     53.10% |           0      0.00%     53.10% |           0      0.00%     53.10% |           0      0.00%     53.10% |           0      0.00%     53.10% |       18659      9.93%     63.03% |        8453      4.50%     67.53% |        8375      4.46%     71.99% |        8426      4.49%     76.48% |           0      0.00%     76.48% |           0      0.00%     76.48% |           0      0.00%     76.48% |           0      0.00%     76.48% |       19324     10.29%     86.76% |        8287      4.41%     91.17% |        8256      4.39%     95.57% |        8326      4.43%    100.00% |           0      0.00%    100.00% |           0      0.00%    100.00% |           0      0.00%    100.00% |           0      0.00%    100.00% # Number of accesses per bank
system.mem_ctrls03.memBankCount::total         187867                       # Number of accesses per bank
system.mem_ctrls04.pwrStateResidencyTicks::UNDEFINED 243771393852                       # Cumulative time (in ticks) in various power states
system.mem_ctrls04.bytes_written::ruby.dir_cntrl4      2007168                       # Number of bytes written to this memory
system.mem_ctrls04.bytes_written::total       2007168                       # Number of bytes written to this memory
system.mem_ctrls04.num_writes::ruby.dir_cntrl4        31362                       # Number of write requests responded to by this memory
system.mem_ctrls04.num_writes::total            31362                       # Number of write requests responded to by this memory
system.mem_ctrls04.bw_write::ruby.dir_cntrl4      8233813                       # Write bandwidth from this memory (bytes/s)
system.mem_ctrls04.bw_write::total            8233813                       # Write bandwidth from this memory (bytes/s)
system.mem_ctrls04.bw_total::ruby.dir_cntrl4      8233813                       # Total bandwidth to/from this memory (bytes/s)
system.mem_ctrls04.bw_total::total            8233813                       # Total bandwidth to/from this memory (bytes/s)
system.mem_ctrls04.memReq                       31362                       # Total number of memory requests
system.mem_ctrls04.memWrite                     31362                       # Number of memory writes
system.mem_ctrls04.memWaitCycles                31362                       # Delay stalled at the head of the bank queue
system.mem_ctrls04.totalStalls                  31362                       # Total number of stall cycles
system.mem_ctrls04.stallsPerReq                     1                       # Expected number of stall cycles per request
system.mem_ctrls04.memBankCount          |           0      0.00%      0.00% |       10096     32.19%     32.19% |           0      0.00%     32.19% |           0      0.00%     32.19% |           0      0.00%     32.19% |           0      0.00%     32.19% |           0      0.00%     32.19% |           0      0.00%     32.19% |           0      0.00%     32.19% |        8545     27.25%     59.44% |           0      0.00%     59.44% |           0      0.00%     59.44% |           0      0.00%     59.44% |           0      0.00%     59.44% |           0      0.00%     59.44% |           0      0.00%     59.44% |           0      0.00%     59.44% |        6171     19.68%     79.11% |           0      0.00%     79.11% |           0      0.00%     79.11% |           0      0.00%     79.11% |           0      0.00%     79.11% |           0      0.00%     79.11% |           0      0.00%     79.11% |           0      0.00%     79.11% |        6550     20.89%    100.00% |           0      0.00%    100.00% |           0      0.00%    100.00% |           0      0.00%    100.00% |           0      0.00%    100.00% |           0      0.00%    100.00% |           0      0.00%    100.00% # Number of accesses per bank
system.mem_ctrls04.memBankCount::total          31362                       # Number of accesses per bank
system.mem_ctrls05.pwrStateResidencyTicks::UNDEFINED 243771393852                       # Cumulative time (in ticks) in various power states
system.mem_ctrls05.bytes_written::ruby.dir_cntrl5      2019072                       # Number of bytes written to this memory
system.mem_ctrls05.bytes_written::total       2019072                       # Number of bytes written to this memory
system.mem_ctrls05.num_writes::ruby.dir_cntrl5        31548                       # Number of write requests responded to by this memory
system.mem_ctrls05.num_writes::total            31548                       # Number of write requests responded to by this memory
system.mem_ctrls05.bw_write::ruby.dir_cntrl5      8282645                       # Write bandwidth from this memory (bytes/s)
system.mem_ctrls05.bw_write::total            8282645                       # Write bandwidth from this memory (bytes/s)
system.mem_ctrls05.bw_total::ruby.dir_cntrl5      8282645                       # Total bandwidth to/from this memory (bytes/s)
system.mem_ctrls05.bw_total::total            8282645                       # Total bandwidth to/from this memory (bytes/s)
system.mem_ctrls05.memReq                       31548                       # Total number of memory requests
system.mem_ctrls05.memWrite                     31548                       # Number of memory writes
system.mem_ctrls05.memWaitCycles                31548                       # Delay stalled at the head of the bank queue
system.mem_ctrls05.totalStalls                  31548                       # Total number of stall cycles
system.mem_ctrls05.stallsPerReq                     1                       # Expected number of stall cycles per request
system.mem_ctrls05.memBankCount          |           0      0.00%      0.00% |       10164     32.22%     32.22% |           0      0.00%     32.22% |           0      0.00%     32.22% |           0      0.00%     32.22% |           0      0.00%     32.22% |           0      0.00%     32.22% |           0      0.00%     32.22% |           0      0.00%     32.22% |        8562     27.14%     59.36% |           0      0.00%     59.36% |           0      0.00%     59.36% |           0      0.00%     59.36% |           0      0.00%     59.36% |           0      0.00%     59.36% |           0      0.00%     59.36% |           0      0.00%     59.36% |        6225     19.73%     79.09% |           0      0.00%     79.09% |           0      0.00%     79.09% |           0      0.00%     79.09% |           0      0.00%     79.09% |           0      0.00%     79.09% |           0      0.00%     79.09% |           0      0.00%     79.09% |        6597     20.91%    100.00% |           0      0.00%    100.00% |           0      0.00%    100.00% |           0      0.00%    100.00% |           0      0.00%    100.00% |           0      0.00%    100.00% |           0      0.00%    100.00% # Number of accesses per bank
system.mem_ctrls05.memBankCount::total          31548                       # Number of accesses per bank
system.mem_ctrls06.pwrStateResidencyTicks::UNDEFINED 243771393852                       # Cumulative time (in ticks) in various power states
system.mem_ctrls06.bytes_written::ruby.dir_cntrl6      2018304                       # Number of bytes written to this memory
system.mem_ctrls06.bytes_written::total       2018304                       # Number of bytes written to this memory
system.mem_ctrls06.num_writes::ruby.dir_cntrl6        31536                       # Number of write requests responded to by this memory
system.mem_ctrls06.num_writes::total            31536                       # Number of write requests responded to by this memory
system.mem_ctrls06.bw_write::ruby.dir_cntrl6      8279495                       # Write bandwidth from this memory (bytes/s)
system.mem_ctrls06.bw_write::total            8279495                       # Write bandwidth from this memory (bytes/s)
system.mem_ctrls06.bw_total::ruby.dir_cntrl6      8279495                       # Total bandwidth to/from this memory (bytes/s)
system.mem_ctrls06.bw_total::total            8279495                       # Total bandwidth to/from this memory (bytes/s)
system.mem_ctrls06.memReq                       31536                       # Total number of memory requests
system.mem_ctrls06.memWrite                     31536                       # Number of memory writes
system.mem_ctrls06.memWaitCycles                31536                       # Delay stalled at the head of the bank queue
system.mem_ctrls06.totalStalls                  31536                       # Total number of stall cycles
system.mem_ctrls06.stallsPerReq                     1                       # Expected number of stall cycles per request
system.mem_ctrls06.memBankCount          |           0      0.00%      0.00% |       10225     32.42%     32.42% |           0      0.00%     32.42% |           0      0.00%     32.42% |           0      0.00%     32.42% |           0      0.00%     32.42% |           0      0.00%     32.42% |           0      0.00%     32.42% |           0      0.00%     32.42% |        8581     27.21%     59.63% |           0      0.00%     59.63% |           0      0.00%     59.63% |           0      0.00%     59.63% |           0      0.00%     59.63% |           0      0.00%     59.63% |           0      0.00%     59.63% |           0      0.00%     59.63% |        6260     19.85%     79.48% |           0      0.00%     79.48% |           0      0.00%     79.48% |           0      0.00%     79.48% |           0      0.00%     79.48% |           0      0.00%     79.48% |           0      0.00%     79.48% |           0      0.00%     79.48% |        6470     20.52%    100.00% |           0      0.00%    100.00% |           0      0.00%    100.00% |           0      0.00%    100.00% |           0      0.00%    100.00% |           0      0.00%    100.00% |           0      0.00%    100.00% # Number of accesses per bank
system.mem_ctrls06.memBankCount::total          31536                       # Number of accesses per bank
system.mem_ctrls07.pwrStateResidencyTicks::UNDEFINED 243771393852                       # Cumulative time (in ticks) in various power states
system.mem_ctrls07.bytes_read::ruby.dir_cntrl7      5931968                       # Number of bytes read from this memory
system.mem_ctrls07.bytes_read::total          5931968                       # Number of bytes read from this memory
system.mem_ctrls07.bytes_written::ruby.dir_cntrl7      2023104                       # Number of bytes written to this memory
system.mem_ctrls07.bytes_written::total       2023104                       # Number of bytes written to this memory
system.mem_ctrls07.num_reads::ruby.dir_cntrl7        92687                       # Number of read requests responded to by this memory
system.mem_ctrls07.num_reads::total             92687                       # Number of read requests responded to by this memory
system.mem_ctrls07.num_writes::ruby.dir_cntrl7        31611                       # Number of write requests responded to by this memory
system.mem_ctrls07.num_writes::total            31611                       # Number of write requests responded to by this memory
system.mem_ctrls07.bw_read::ruby.dir_cntrl7     24334143                       # Total read bandwidth from this memory (bytes/s)
system.mem_ctrls07.bw_read::total            24334143                       # Total read bandwidth from this memory (bytes/s)
system.mem_ctrls07.bw_write::ruby.dir_cntrl7      8299185                       # Write bandwidth from this memory (bytes/s)
system.mem_ctrls07.bw_write::total            8299185                       # Write bandwidth from this memory (bytes/s)
system.mem_ctrls07.bw_total::ruby.dir_cntrl7     32633329                       # Total bandwidth to/from this memory (bytes/s)
system.mem_ctrls07.bw_total::total           32633329                       # Total bandwidth to/from this memory (bytes/s)
system.mem_ctrls07.memReq                      124298                       # Total number of memory requests
system.mem_ctrls07.memRead                      92687                       # Number of memory reads
system.mem_ctrls07.memWrite                     31611                       # Number of memory writes
system.mem_ctrls07.memWaitCycles               124298                       # Delay stalled at the head of the bank queue
system.mem_ctrls07.totalStalls                 124298                       # Total number of stall cycles
system.mem_ctrls07.stallsPerReq                     1                       # Expected number of stall cycles per request
system.mem_ctrls07.memBankCount          |           0      0.00%      0.00% |       42695     34.35%     34.35% |           0      0.00%     34.35% |           0      0.00%     34.35% |           0      0.00%     34.35% |           0      0.00%     34.35% |           0      0.00%     34.35% |           0      0.00%     34.35% |           0      0.00%     34.35% |       34272     27.57%     61.92% |           0      0.00%     61.92% |           0      0.00%     61.92% |           0      0.00%     61.92% |           0      0.00%     61.92% |           0      0.00%     61.92% |           0      0.00%     61.92% |           0      0.00%     61.92% |       22865     18.40%     80.32% |           0      0.00%     80.32% |           0      0.00%     80.32% |           0      0.00%     80.32% |           0      0.00%     80.32% |           0      0.00%     80.32% |           0      0.00%     80.32% |           0      0.00%     80.32% |       24466     19.68%    100.00% |           0      0.00%    100.00% |           0      0.00%    100.00% |           0      0.00%    100.00% |           0      0.00%    100.00% |           0      0.00%    100.00% |           0      0.00%    100.00% # Number of accesses per bank
system.mem_ctrls07.memBankCount::total         124298                       # Number of accesses per bank
system.mem_ctrls08.pwrStateResidencyTicks::UNDEFINED 243771393852                       # Cumulative time (in ticks) in various power states
system.mem_ctrls08.bytes_read::ruby.dir_cntrl8      9944320                       # Number of bytes read from this memory
system.mem_ctrls08.bytes_read::total          9944320                       # Number of bytes read from this memory
system.mem_ctrls08.bytes_written::ruby.dir_cntrl8      2025088                       # Number of bytes written to this memory
system.mem_ctrls08.bytes_written::total       2025088                       # Number of bytes written to this memory
system.mem_ctrls08.num_reads::ruby.dir_cntrl8       155380                       # Number of read requests responded to by this memory
system.mem_ctrls08.num_reads::total            155380                       # Number of read requests responded to by this memory
system.mem_ctrls08.num_writes::ruby.dir_cntrl8        31642                       # Number of write requests responded to by this memory
system.mem_ctrls08.num_writes::total            31642                       # Number of write requests responded to by this memory
system.mem_ctrls08.bw_read::ruby.dir_cntrl8     40793630                       # Total read bandwidth from this memory (bytes/s)
system.mem_ctrls08.bw_read::total            40793630                       # Total read bandwidth from this memory (bytes/s)
system.mem_ctrls08.bw_write::ruby.dir_cntrl8      8307324                       # Write bandwidth from this memory (bytes/s)
system.mem_ctrls08.bw_write::total            8307324                       # Write bandwidth from this memory (bytes/s)
system.mem_ctrls08.bw_total::ruby.dir_cntrl8     49100954                       # Total bandwidth to/from this memory (bytes/s)
system.mem_ctrls08.bw_total::total           49100954                       # Total bandwidth to/from this memory (bytes/s)
system.mem_ctrls08.memReq                      187022                       # Total number of memory requests
system.mem_ctrls08.memRead                     155380                       # Number of memory reads
system.mem_ctrls08.memWrite                     31642                       # Number of memory writes
system.mem_ctrls08.memWaitCycles               187022                       # Delay stalled at the head of the bank queue
system.mem_ctrls08.totalStalls                 187022                       # Total number of stall cycles
system.mem_ctrls08.stallsPerReq                     1                       # Expected number of stall cycles per request
system.mem_ctrls08.memBankCount          |           0      0.00%      0.00% |           0      0.00%      0.00% |       36714     19.63%     19.63% |           0      0.00%     19.63% |           0      0.00%     19.63% |           0      0.00%     19.63% |           0      0.00%     19.63% |           0      0.00%     19.63% |           0      0.00%     19.63% |           0      0.00%     19.63% |      102291     54.69%     74.33% |           0      0.00%     74.33% |           0      0.00%     74.33% |           0      0.00%     74.33% |           0      0.00%     74.33% |           0      0.00%     74.33% |           0      0.00%     74.33% |           0      0.00%     74.33% |       23605     12.62%     86.95% |           0      0.00%     86.95% |           0      0.00%     86.95% |           0      0.00%     86.95% |           0      0.00%     86.95% |           0      0.00%     86.95% |           0      0.00%     86.95% |           0      0.00%     86.95% |       24412     13.05%    100.00% |           0      0.00%    100.00% |           0      0.00%    100.00% |           0      0.00%    100.00% |           0      0.00%    100.00% |           0      0.00%    100.00% # Number of accesses per bank
system.mem_ctrls08.memBankCount::total         187022                       # Number of accesses per bank
system.mem_ctrls09.pwrStateResidencyTicks::UNDEFINED 243771393852                       # Cumulative time (in ticks) in various power states
system.mem_ctrls09.bytes_written::ruby.dir_cntrl9      3760192                       # Number of bytes written to this memory
system.mem_ctrls09.bytes_written::total       3760192                       # Number of bytes written to this memory
system.mem_ctrls09.num_writes::ruby.dir_cntrl9        58753                       # Number of write requests responded to by this memory
system.mem_ctrls09.num_writes::total            58753                       # Number of write requests responded to by this memory
system.mem_ctrls09.bw_write::ruby.dir_cntrl9     15425075                       # Write bandwidth from this memory (bytes/s)
system.mem_ctrls09.bw_write::total           15425075                       # Write bandwidth from this memory (bytes/s)
system.mem_ctrls09.bw_total::ruby.dir_cntrl9     15425075                       # Total bandwidth to/from this memory (bytes/s)
system.mem_ctrls09.bw_total::total           15425075                       # Total bandwidth to/from this memory (bytes/s)
system.mem_ctrls09.memReq                       58753                       # Total number of memory requests
system.mem_ctrls09.memWrite                     58753                       # Number of memory writes
system.mem_ctrls09.memWaitCycles                58753                       # Delay stalled at the head of the bank queue
system.mem_ctrls09.totalStalls                  58753                       # Total number of stall cycles
system.mem_ctrls09.stallsPerReq                     1                       # Expected number of stall cycles per request
system.mem_ctrls09.memBankCount          |           0      0.00%      0.00% |           0      0.00%      0.00% |       10595     18.03%     18.03% |           0      0.00%     18.03% |           0      0.00%     18.03% |           0      0.00%     18.03% |           0      0.00%     18.03% |           0      0.00%     18.03% |           0      0.00%     18.03% |           0      0.00%     18.03% |       35114     59.77%     77.80% |           0      0.00%     77.80% |           0      0.00%     77.80% |           0      0.00%     77.80% |           0      0.00%     77.80% |           0      0.00%     77.80% |           0      0.00%     77.80% |           0      0.00%     77.80% |        6437     10.96%     88.75% |           0      0.00%     88.75% |           0      0.00%     88.75% |           0      0.00%     88.75% |           0      0.00%     88.75% |           0      0.00%     88.75% |           0      0.00%     88.75% |           0      0.00%     88.75% |        6607     11.25%    100.00% |           0      0.00%    100.00% |           0      0.00%    100.00% |           0      0.00%    100.00% |           0      0.00%    100.00% |           0      0.00%    100.00% # Number of accesses per bank
system.mem_ctrls09.memBankCount::total          58753                       # Number of accesses per bank
system.mem_ctrls10.pwrStateResidencyTicks::UNDEFINED 243771393852                       # Cumulative time (in ticks) in various power states
system.mem_ctrls10.bytes_written::ruby.dir_cntrl10      4500288                       # Number of bytes written to this memory
system.mem_ctrls10.bytes_written::total       4500288                       # Number of bytes written to this memory
system.mem_ctrls10.num_writes::ruby.dir_cntrl10        70317                       # Number of write requests responded to by this memory
system.mem_ctrls10.num_writes::total            70317                       # Number of write requests responded to by this memory
system.mem_ctrls10.bw_write::ruby.dir_cntrl10     18461100                       # Write bandwidth from this memory (bytes/s)
system.mem_ctrls10.bw_write::total           18461100                       # Write bandwidth from this memory (bytes/s)
system.mem_ctrls10.bw_total::ruby.dir_cntrl10     18461100                       # Total bandwidth to/from this memory (bytes/s)
system.mem_ctrls10.bw_total::total           18461100                       # Total bandwidth to/from this memory (bytes/s)
system.mem_ctrls10.memReq                       70317                       # Total number of memory requests
system.mem_ctrls10.memWrite                     70317                       # Number of memory writes
system.mem_ctrls10.memWaitCycles                70317                       # Delay stalled at the head of the bank queue
system.mem_ctrls10.totalStalls                  70317                       # Total number of stall cycles
system.mem_ctrls10.stallsPerReq                     1                       # Expected number of stall cycles per request
system.mem_ctrls10.memBankCount          |           0      0.00%      0.00% |           0      0.00%      0.00% |        6806      9.68%      9.68% |           0      0.00%      9.68% |           0      0.00%      9.68% |           0      0.00%      9.68% |           0      0.00%      9.68% |           0      0.00%      9.68% |           0      0.00%      9.68% |           0      0.00%      9.68% |       50612     71.98%     81.66% |           0      0.00%     81.66% |           0      0.00%     81.66% |           0      0.00%     81.66% |           0      0.00%     81.66% |           0      0.00%     81.66% |           0      0.00%     81.66% |           0      0.00%     81.66% |        6368      9.06%     90.71% |           0      0.00%     90.71% |           0      0.00%     90.71% |           0      0.00%     90.71% |           0      0.00%     90.71% |           0      0.00%     90.71% |           0      0.00%     90.71% |           0      0.00%     90.71% |        6531      9.29%    100.00% |           0      0.00%    100.00% |           0      0.00%    100.00% |           0      0.00%    100.00% |           0      0.00%    100.00% |           0      0.00%    100.00% # Number of accesses per bank
system.mem_ctrls10.memBankCount::total          70317                       # Number of accesses per bank
system.mem_ctrls11.pwrStateResidencyTicks::UNDEFINED 243771393852                       # Cumulative time (in ticks) in various power states
system.mem_ctrls11.bytes_written::ruby.dir_cntrl11      1797120                       # Number of bytes written to this memory
system.mem_ctrls11.bytes_written::total       1797120                       # Number of bytes written to this memory
system.mem_ctrls11.num_writes::ruby.dir_cntrl11        28080                       # Number of write requests responded to by this memory
system.mem_ctrls11.num_writes::total            28080                       # Number of write requests responded to by this memory
system.mem_ctrls11.bw_write::ruby.dir_cntrl11      7372153                       # Write bandwidth from this memory (bytes/s)
system.mem_ctrls11.bw_write::total            7372153                       # Write bandwidth from this memory (bytes/s)
system.mem_ctrls11.bw_total::ruby.dir_cntrl11      7372153                       # Total bandwidth to/from this memory (bytes/s)
system.mem_ctrls11.bw_total::total            7372153                       # Total bandwidth to/from this memory (bytes/s)
system.mem_ctrls11.memReq                       28080                       # Total number of memory requests
system.mem_ctrls11.memWrite                     28080                       # Number of memory writes
system.mem_ctrls11.memWaitCycles                28080                       # Delay stalled at the head of the bank queue
system.mem_ctrls11.totalStalls                  28080                       # Total number of stall cycles
system.mem_ctrls11.stallsPerReq                     1                       # Expected number of stall cycles per request
system.mem_ctrls11.memBankCount          |           0      0.00%      0.00% |           0      0.00%      0.00% |        6975     24.84%     24.84% |           0      0.00%     24.84% |           0      0.00%     24.84% |           0      0.00%     24.84% |           0      0.00%     24.84% |           0      0.00%     24.84% |           0      0.00%     24.84% |           0      0.00%     24.84% |        8222     29.28%     54.12% |           0      0.00%     54.12% |           0      0.00%     54.12% |           0      0.00%     54.12% |           0      0.00%     54.12% |           0      0.00%     54.12% |           0      0.00%     54.12% |           0      0.00%     54.12% |        6395     22.77%     76.89% |           0      0.00%     76.89% |           0      0.00%     76.89% |           0      0.00%     76.89% |           0      0.00%     76.89% |           0      0.00%     76.89% |           0      0.00%     76.89% |           0      0.00%     76.89% |        6488     23.11%    100.00% |           0      0.00%    100.00% |           0      0.00%    100.00% |           0      0.00%    100.00% |           0      0.00%    100.00% |           0      0.00%    100.00% # Number of accesses per bank
system.mem_ctrls11.memBankCount::total          28080                       # Number of accesses per bank
system.mem_ctrls12.pwrStateResidencyTicks::UNDEFINED 243771393852                       # Cumulative time (in ticks) in various power states
system.mem_ctrls12.bytes_written::ruby.dir_cntrl12      1797504                       # Number of bytes written to this memory
system.mem_ctrls12.bytes_written::total       1797504                       # Number of bytes written to this memory
system.mem_ctrls12.num_writes::ruby.dir_cntrl12        28086                       # Number of write requests responded to by this memory
system.mem_ctrls12.num_writes::total            28086                       # Number of write requests responded to by this memory
system.mem_ctrls12.bw_write::ruby.dir_cntrl12      7373728                       # Write bandwidth from this memory (bytes/s)
system.mem_ctrls12.bw_write::total            7373728                       # Write bandwidth from this memory (bytes/s)
system.mem_ctrls12.bw_total::ruby.dir_cntrl12      7373728                       # Total bandwidth to/from this memory (bytes/s)
system.mem_ctrls12.bw_total::total            7373728                       # Total bandwidth to/from this memory (bytes/s)
system.mem_ctrls12.memReq                       28086                       # Total number of memory requests
system.mem_ctrls12.memWrite                     28086                       # Number of memory writes
system.mem_ctrls12.memWaitCycles                28086                       # Delay stalled at the head of the bank queue
system.mem_ctrls12.totalStalls                  28086                       # Total number of stall cycles
system.mem_ctrls12.stallsPerReq                     1                       # Expected number of stall cycles per request
system.mem_ctrls12.memBankCount          |           0      0.00%      0.00% |           0      0.00%      0.00% |           0      0.00%      0.00% |        7089     25.24%     25.24% |           0      0.00%     25.24% |           0      0.00%     25.24% |           0      0.00%     25.24% |           0      0.00%     25.24% |           0      0.00%     25.24% |           0      0.00%     25.24% |           0      0.00%     25.24% |        8116     28.90%     54.14% |           0      0.00%     54.14% |           0      0.00%     54.14% |           0      0.00%     54.14% |           0      0.00%     54.14% |           0      0.00%     54.14% |           0      0.00%     54.14% |           0      0.00%     54.14% |        6379     22.71%     76.85% |           0      0.00%     76.85% |           0      0.00%     76.85% |           0      0.00%     76.85% |           0      0.00%     76.85% |           0      0.00%     76.85% |           0      0.00%     76.85% |           0      0.00%     76.85% |        6502     23.15%    100.00% |           0      0.00%    100.00% |           0      0.00%    100.00% |           0      0.00%    100.00% |           0      0.00%    100.00% # Number of accesses per bank
system.mem_ctrls12.memBankCount::total          28086                       # Number of accesses per bank
system.mem_ctrls13.pwrStateResidencyTicks::UNDEFINED 243771393852                       # Cumulative time (in ticks) in various power states
system.mem_ctrls13.bytes_written::ruby.dir_cntrl13      1795712                       # Number of bytes written to this memory
system.mem_ctrls13.bytes_written::total       1795712                       # Number of bytes written to this memory
system.mem_ctrls13.num_writes::ruby.dir_cntrl13        28058                       # Number of write requests responded to by this memory
system.mem_ctrls13.num_writes::total            28058                       # Number of write requests responded to by this memory
system.mem_ctrls13.bw_write::ruby.dir_cntrl13      7366377                       # Write bandwidth from this memory (bytes/s)
system.mem_ctrls13.bw_write::total            7366377                       # Write bandwidth from this memory (bytes/s)
system.mem_ctrls13.bw_total::ruby.dir_cntrl13      7366377                       # Total bandwidth to/from this memory (bytes/s)
system.mem_ctrls13.bw_total::total            7366377                       # Total bandwidth to/from this memory (bytes/s)
system.mem_ctrls13.memReq                       28058                       # Total number of memory requests
system.mem_ctrls13.memWrite                     28058                       # Number of memory writes
system.mem_ctrls13.memWaitCycles                28058                       # Delay stalled at the head of the bank queue
system.mem_ctrls13.totalStalls                  28058                       # Total number of stall cycles
system.mem_ctrls13.stallsPerReq                     1                       # Expected number of stall cycles per request
system.mem_ctrls13.memBankCount          |           0      0.00%      0.00% |           0      0.00%      0.00% |           0      0.00%      0.00% |        7249     25.84%     25.84% |           0      0.00%     25.84% |           0      0.00%     25.84% |           0      0.00%     25.84% |           0      0.00%     25.84% |           0      0.00%     25.84% |           0      0.00%     25.84% |           0      0.00%     25.84% |        7960     28.37%     54.21% |           0      0.00%     54.21% |           0      0.00%     54.21% |           0      0.00%     54.21% |           0      0.00%     54.21% |           0      0.00%     54.21% |           0      0.00%     54.21% |           0      0.00%     54.21% |        6418     22.87%     77.08% |           0      0.00%     77.08% |           0      0.00%     77.08% |           0      0.00%     77.08% |           0      0.00%     77.08% |           0      0.00%     77.08% |           0      0.00%     77.08% |           0      0.00%     77.08% |        6431     22.92%    100.00% |           0      0.00%    100.00% |           0      0.00%    100.00% |           0      0.00%    100.00% |           0      0.00%    100.00% # Number of accesses per bank
system.mem_ctrls13.memBankCount::total          28058                       # Number of accesses per bank
system.mem_ctrls14.pwrStateResidencyTicks::UNDEFINED 243771393852                       # Cumulative time (in ticks) in various power states
system.mem_ctrls14.bytes_written::ruby.dir_cntrl14      1827776                       # Number of bytes written to this memory
system.mem_ctrls14.bytes_written::total       1827776                       # Number of bytes written to this memory
system.mem_ctrls14.num_writes::ruby.dir_cntrl14        28559                       # Number of write requests responded to by this memory
system.mem_ctrls14.num_writes::total            28559                       # Number of write requests responded to by this memory
system.mem_ctrls14.bw_write::ruby.dir_cntrl14      7497910                       # Write bandwidth from this memory (bytes/s)
system.mem_ctrls14.bw_write::total            7497910                       # Write bandwidth from this memory (bytes/s)
system.mem_ctrls14.bw_total::ruby.dir_cntrl14      7497910                       # Total bandwidth to/from this memory (bytes/s)
system.mem_ctrls14.bw_total::total            7497910                       # Total bandwidth to/from this memory (bytes/s)
system.mem_ctrls14.memReq                       28559                       # Total number of memory requests
system.mem_ctrls14.memWrite                     28559                       # Number of memory writes
system.mem_ctrls14.memWaitCycles                28559                       # Delay stalled at the head of the bank queue
system.mem_ctrls14.totalStalls                  28559                       # Total number of stall cycles
system.mem_ctrls14.stallsPerReq                     1                       # Expected number of stall cycles per request
system.mem_ctrls14.memBankCount          |           0      0.00%      0.00% |           0      0.00%      0.00% |           0      0.00%      0.00% |        7476     26.18%     26.18% |           0      0.00%     26.18% |           0      0.00%     26.18% |           0      0.00%     26.18% |           0      0.00%     26.18% |           0      0.00%     26.18% |           0      0.00%     26.18% |           0      0.00%     26.18% |        7920     27.73%     53.91% |           0      0.00%     53.91% |           0      0.00%     53.91% |           0      0.00%     53.91% |           0      0.00%     53.91% |           0      0.00%     53.91% |           0      0.00%     53.91% |           0      0.00%     53.91% |        6489     22.72%     76.63% |           0      0.00%     76.63% |           0      0.00%     76.63% |           0      0.00%     76.63% |           0      0.00%     76.63% |           0      0.00%     76.63% |           0      0.00%     76.63% |           0      0.00%     76.63% |        6674     23.37%    100.00% |           0      0.00%    100.00% |           0      0.00%    100.00% |           0      0.00%    100.00% |           0      0.00%    100.00% # Number of accesses per bank
system.mem_ctrls14.memBankCount::total          28559                       # Number of accesses per bank
system.mem_ctrls15.pwrStateResidencyTicks::UNDEFINED 243771393852                       # Cumulative time (in ticks) in various power states
system.mem_ctrls15.bytes_read::ruby.dir_cntrl15      5090240                       # Number of bytes read from this memory
system.mem_ctrls15.bytes_read::total          5090240                       # Number of bytes read from this memory
system.mem_ctrls15.bytes_written::ruby.dir_cntrl15      1808704                       # Number of bytes written to this memory
system.mem_ctrls15.bytes_written::total       1808704                       # Number of bytes written to this memory
system.mem_ctrls15.num_reads::ruby.dir_cntrl15        79535                       # Number of read requests responded to by this memory
system.mem_ctrls15.num_reads::total             79535                       # Number of read requests responded to by this memory
system.mem_ctrls15.num_writes::ruby.dir_cntrl15        28261                       # Number of write requests responded to by this memory
system.mem_ctrls15.num_writes::total            28261                       # Number of write requests responded to by this memory
system.mem_ctrls15.bw_read::ruby.dir_cntrl15     20881203                       # Total read bandwidth from this memory (bytes/s)
system.mem_ctrls15.bw_read::total            20881203                       # Total read bandwidth from this memory (bytes/s)
system.mem_ctrls15.bw_write::ruby.dir_cntrl15      7419673                       # Write bandwidth from this memory (bytes/s)
system.mem_ctrls15.bw_write::total            7419673                       # Write bandwidth from this memory (bytes/s)
system.mem_ctrls15.bw_total::ruby.dir_cntrl15     28300876                       # Total bandwidth to/from this memory (bytes/s)
system.mem_ctrls15.bw_total::total           28300876                       # Total bandwidth to/from this memory (bytes/s)
system.mem_ctrls15.memReq                      107796                       # Total number of memory requests
system.mem_ctrls15.memRead                      79535                       # Number of memory reads
system.mem_ctrls15.memWrite                     28261                       # Number of memory writes
system.mem_ctrls15.memWaitCycles               107796                       # Delay stalled at the head of the bank queue
system.mem_ctrls15.totalStalls                 107796                       # Total number of stall cycles
system.mem_ctrls15.stallsPerReq                     1                       # Expected number of stall cycles per request
system.mem_ctrls15.memBankCount          |           0      0.00%      0.00% |           0      0.00%      0.00% |           0      0.00%      0.00% |       28663     26.59%     26.59% |           0      0.00%     26.59% |           0      0.00%     26.59% |           0      0.00%     26.59% |           0      0.00%     26.59% |           0      0.00%     26.59% |           0      0.00%     26.59% |           0      0.00%     26.59% |       31002     28.76%     55.35% |           0      0.00%     55.35% |           0      0.00%     55.35% |           0      0.00%     55.35% |           0      0.00%     55.35% |           0      0.00%     55.35% |           0      0.00%     55.35% |           0      0.00%     55.35% |       23750     22.03%     77.38% |           0      0.00%     77.38% |           0      0.00%     77.38% |           0      0.00%     77.38% |           0      0.00%     77.38% |           0      0.00%     77.38% |           0      0.00%     77.38% |           0      0.00%     77.38% |       24381     22.62%    100.00% |           0      0.00%    100.00% |           0      0.00%    100.00% |           0      0.00%    100.00% |           0      0.00%    100.00% # Number of accesses per bank
system.mem_ctrls15.memBankCount::total         107796                       # Number of accesses per bank
system.mem_ctrls16.pwrStateResidencyTicks::UNDEFINED 243771393852                       # Cumulative time (in ticks) in various power states
system.mem_ctrls16.bytes_read::ruby.dir_cntrl16      5829120                       # Number of bytes read from this memory
system.mem_ctrls16.bytes_read::total          5829120                       # Number of bytes read from this memory
system.mem_ctrls16.bytes_written::ruby.dir_cntrl16      1815424                       # Number of bytes written to this memory
system.mem_ctrls16.bytes_written::total       1815424                       # Number of bytes written to this memory
system.mem_ctrls16.num_reads::ruby.dir_cntrl16        91080                       # Number of read requests responded to by this memory
system.mem_ctrls16.num_reads::total             91080                       # Number of read requests responded to by this memory
system.mem_ctrls16.num_writes::ruby.dir_cntrl16        28366                       # Number of write requests responded to by this memory
system.mem_ctrls16.num_writes::total            28366                       # Number of write requests responded to by this memory
system.mem_ctrls16.bw_read::ruby.dir_cntrl16     23912240                       # Total read bandwidth from this memory (bytes/s)
system.mem_ctrls16.bw_read::total            23912240                       # Total read bandwidth from this memory (bytes/s)
system.mem_ctrls16.bw_write::ruby.dir_cntrl16      7447240                       # Write bandwidth from this memory (bytes/s)
system.mem_ctrls16.bw_write::total            7447240                       # Write bandwidth from this memory (bytes/s)
system.mem_ctrls16.bw_total::ruby.dir_cntrl16     31359479                       # Total bandwidth to/from this memory (bytes/s)
system.mem_ctrls16.bw_total::total           31359479                       # Total bandwidth to/from this memory (bytes/s)
system.mem_ctrls16.memReq                      119446                       # Total number of memory requests
system.mem_ctrls16.memRead                      91080                       # Number of memory reads
system.mem_ctrls16.memWrite                     28366                       # Number of memory writes
system.mem_ctrls16.memWaitCycles               119446                       # Delay stalled at the head of the bank queue
system.mem_ctrls16.totalStalls                 119446                       # Total number of stall cycles
system.mem_ctrls16.stallsPerReq                     1                       # Expected number of stall cycles per request
system.mem_ctrls16.memBankCount          |           0      0.00%      0.00% |           0      0.00%      0.00% |           0      0.00%      0.00% |           0      0.00%      0.00% |       42764     35.80%     35.80% |           0      0.00%     35.80% |           0      0.00%     35.80% |           0      0.00%     35.80% |           0      0.00%     35.80% |           0      0.00%     35.80% |           0      0.00%     35.80% |           0      0.00%     35.80% |       28503     23.86%     59.66% |           0      0.00%     59.66% |           0      0.00%     59.66% |           0      0.00%     59.66% |           0      0.00%     59.66% |           0      0.00%     59.66% |           0      0.00%     59.66% |           0      0.00%     59.66% |       23839     19.96%     79.62% |           0      0.00%     79.62% |           0      0.00%     79.62% |           0      0.00%     79.62% |           0      0.00%     79.62% |           0      0.00%     79.62% |           0      0.00%     79.62% |           0      0.00%     79.62% |       24340     20.38%    100.00% |           0      0.00%    100.00% |           0      0.00%    100.00% |           0      0.00%    100.00% # Number of accesses per bank
system.mem_ctrls16.memBankCount::total         119446                       # Number of accesses per bank
system.mem_ctrls17.pwrStateResidencyTicks::UNDEFINED 243771393852                       # Cumulative time (in ticks) in various power states
system.mem_ctrls17.bytes_written::ruby.dir_cntrl17      1811072                       # Number of bytes written to this memory
system.mem_ctrls17.bytes_written::total       1811072                       # Number of bytes written to this memory
system.mem_ctrls17.num_writes::ruby.dir_cntrl17        28298                       # Number of write requests responded to by this memory
system.mem_ctrls17.num_writes::total            28298                       # Number of write requests responded to by this memory
system.mem_ctrls17.bw_write::ruby.dir_cntrl17      7429387                       # Write bandwidth from this memory (bytes/s)
system.mem_ctrls17.bw_write::total            7429387                       # Write bandwidth from this memory (bytes/s)
system.mem_ctrls17.bw_total::ruby.dir_cntrl17      7429387                       # Total bandwidth to/from this memory (bytes/s)
system.mem_ctrls17.bw_total::total            7429387                       # Total bandwidth to/from this memory (bytes/s)
system.mem_ctrls17.memReq                       28298                       # Total number of memory requests
system.mem_ctrls17.memWrite                     28298                       # Number of memory writes
system.mem_ctrls17.memWaitCycles                28298                       # Delay stalled at the head of the bank queue
system.mem_ctrls17.totalStalls                  28298                       # Total number of stall cycles
system.mem_ctrls17.stallsPerReq                     1                       # Expected number of stall cycles per request
system.mem_ctrls17.memBankCount          |           0      0.00%      0.00% |           0      0.00%      0.00% |           0      0.00%      0.00% |           0      0.00%      0.00% |        7993     28.25%     28.25% |           0      0.00%     28.25% |           0      0.00%     28.25% |           0      0.00%     28.25% |           0      0.00%     28.25% |           0      0.00%     28.25% |           0      0.00%     28.25% |           0      0.00%     28.25% |        7356     25.99%     54.24% |           0      0.00%     54.24% |           0      0.00%     54.24% |           0      0.00%     54.24% |           0      0.00%     54.24% |           0      0.00%     54.24% |           0      0.00%     54.24% |           0      0.00%     54.24% |        6423     22.70%     76.94% |           0      0.00%     76.94% |           0      0.00%     76.94% |           0      0.00%     76.94% |           0      0.00%     76.94% |           0      0.00%     76.94% |           0      0.00%     76.94% |           0      0.00%     76.94% |        6526     23.06%    100.00% |           0      0.00%    100.00% |           0      0.00%    100.00% |           0      0.00%    100.00% # Number of accesses per bank
system.mem_ctrls17.memBankCount::total          28298                       # Number of accesses per bank
system.mem_ctrls18.pwrStateResidencyTicks::UNDEFINED 243771393852                       # Cumulative time (in ticks) in various power states
system.mem_ctrls18.bytes_written::ruby.dir_cntrl18      2533056                       # Number of bytes written to this memory
system.mem_ctrls18.bytes_written::total       2533056                       # Number of bytes written to this memory
system.mem_ctrls18.num_writes::ruby.dir_cntrl18        39579                       # Number of write requests responded to by this memory
system.mem_ctrls18.num_writes::total            39579                       # Number of write requests responded to by this memory
system.mem_ctrls18.bw_write::ruby.dir_cntrl18     10391113                       # Write bandwidth from this memory (bytes/s)
system.mem_ctrls18.bw_write::total           10391113                       # Write bandwidth from this memory (bytes/s)
system.mem_ctrls18.bw_total::ruby.dir_cntrl18     10391113                       # Total bandwidth to/from this memory (bytes/s)
system.mem_ctrls18.bw_total::total           10391113                       # Total bandwidth to/from this memory (bytes/s)
system.mem_ctrls18.memReq                       39579                       # Total number of memory requests
system.mem_ctrls18.memWrite                     39579                       # Number of memory writes
system.mem_ctrls18.memWaitCycles                39579                       # Delay stalled at the head of the bank queue
system.mem_ctrls18.totalStalls                  39579                       # Total number of stall cycles
system.mem_ctrls18.stallsPerReq                     1                       # Expected number of stall cycles per request
system.mem_ctrls18.memBankCount          |           0      0.00%      0.00% |           0      0.00%      0.00% |           0      0.00%      0.00% |           0      0.00%      0.00% |       19383     48.97%     48.97% |           0      0.00%     48.97% |           0      0.00%     48.97% |           0      0.00%     48.97% |           0      0.00%     48.97% |           0      0.00%     48.97% |           0      0.00%     48.97% |           0      0.00%     48.97% |        7253     18.33%     67.30% |           0      0.00%     67.30% |           0      0.00%     67.30% |           0      0.00%     67.30% |           0      0.00%     67.30% |           0      0.00%     67.30% |           0      0.00%     67.30% |           0      0.00%     67.30% |        6460     16.32%     83.62% |           0      0.00%     83.62% |           0      0.00%     83.62% |           0      0.00%     83.62% |           0      0.00%     83.62% |           0      0.00%     83.62% |           0      0.00%     83.62% |           0      0.00%     83.62% |        6483     16.38%    100.00% |           0      0.00%    100.00% |           0      0.00%    100.00% |           0      0.00%    100.00% # Number of accesses per bank
system.mem_ctrls18.memBankCount::total          39579                       # Number of accesses per bank
system.mem_ctrls19.pwrStateResidencyTicks::UNDEFINED 243771393852                       # Cumulative time (in ticks) in various power states
system.mem_ctrls19.bytes_written::ruby.dir_cntrl19      1803200                       # Number of bytes written to this memory
system.mem_ctrls19.bytes_written::total       1803200                       # Number of bytes written to this memory
system.mem_ctrls19.num_writes::ruby.dir_cntrl19        28175                       # Number of write requests responded to by this memory
system.mem_ctrls19.num_writes::total            28175                       # Number of write requests responded to by this memory
system.mem_ctrls19.bw_write::ruby.dir_cntrl19      7397094                       # Write bandwidth from this memory (bytes/s)
system.mem_ctrls19.bw_write::total            7397094                       # Write bandwidth from this memory (bytes/s)
system.mem_ctrls19.bw_total::ruby.dir_cntrl19      7397094                       # Total bandwidth to/from this memory (bytes/s)
system.mem_ctrls19.bw_total::total            7397094                       # Total bandwidth to/from this memory (bytes/s)
system.mem_ctrls19.memReq                       28175                       # Total number of memory requests
system.mem_ctrls19.memWrite                     28175                       # Number of memory writes
system.mem_ctrls19.memWaitCycles                28175                       # Delay stalled at the head of the bank queue
system.mem_ctrls19.totalStalls                  28175                       # Total number of stall cycles
system.mem_ctrls19.stallsPerReq                     1                       # Expected number of stall cycles per request
system.mem_ctrls19.memBankCount          |           0      0.00%      0.00% |           0      0.00%      0.00% |           0      0.00%      0.00% |           0      0.00%      0.00% |        8092     28.72%     28.72% |           0      0.00%     28.72% |           0      0.00%     28.72% |           0      0.00%     28.72% |           0      0.00%     28.72% |           0      0.00%     28.72% |           0      0.00%     28.72% |           0      0.00%     28.72% |        7133     25.32%     54.04% |           0      0.00%     54.04% |           0      0.00%     54.04% |           0      0.00%     54.04% |           0      0.00%     54.04% |           0      0.00%     54.04% |           0      0.00%     54.04% |           0      0.00%     54.04% |        6466     22.95%     76.99% |           0      0.00%     76.99% |           0      0.00%     76.99% |           0      0.00%     76.99% |           0      0.00%     76.99% |           0      0.00%     76.99% |           0      0.00%     76.99% |           0      0.00%     76.99% |        6484     23.01%    100.00% |           0      0.00%    100.00% |           0      0.00%    100.00% |           0      0.00%    100.00% # Number of accesses per bank
system.mem_ctrls19.memBankCount::total          28175                       # Number of accesses per bank
system.mem_ctrls20.pwrStateResidencyTicks::UNDEFINED 243771393852                       # Cumulative time (in ticks) in various power states
system.mem_ctrls20.bytes_written::ruby.dir_cntrl20      1799680                       # Number of bytes written to this memory
system.mem_ctrls20.bytes_written::total       1799680                       # Number of bytes written to this memory
system.mem_ctrls20.num_writes::ruby.dir_cntrl20        28120                       # Number of write requests responded to by this memory
system.mem_ctrls20.num_writes::total            28120                       # Number of write requests responded to by this memory
system.mem_ctrls20.bw_write::ruby.dir_cntrl20      7382655                       # Write bandwidth from this memory (bytes/s)
system.mem_ctrls20.bw_write::total            7382655                       # Write bandwidth from this memory (bytes/s)
system.mem_ctrls20.bw_total::ruby.dir_cntrl20      7382655                       # Total bandwidth to/from this memory (bytes/s)
system.mem_ctrls20.bw_total::total            7382655                       # Total bandwidth to/from this memory (bytes/s)
system.mem_ctrls20.memReq                       28120                       # Total number of memory requests
system.mem_ctrls20.memWrite                     28120                       # Number of memory writes
system.mem_ctrls20.memWaitCycles                28120                       # Delay stalled at the head of the bank queue
system.mem_ctrls20.totalStalls                  28120                       # Total number of stall cycles
system.mem_ctrls20.stallsPerReq                     1                       # Expected number of stall cycles per request
system.mem_ctrls20.memBankCount          |           0      0.00%      0.00% |           0      0.00%      0.00% |           0      0.00%      0.00% |           0      0.00%      0.00% |           0      0.00%      0.00% |        8329     29.62%     29.62% |           0      0.00%     29.62% |           0      0.00%     29.62% |           0      0.00%     29.62% |           0      0.00%     29.62% |           0      0.00%     29.62% |           0      0.00%     29.62% |           0      0.00%     29.62% |        7005     24.91%     54.53% |           0      0.00%     54.53% |           0      0.00%     54.53% |           0      0.00%     54.53% |           0      0.00%     54.53% |           0      0.00%     54.53% |           0      0.00%     54.53% |           0      0.00%     54.53% |        6473     23.02%     77.55% |           0      0.00%     77.55% |           0      0.00%     77.55% |           0      0.00%     77.55% |           0      0.00%     77.55% |           0      0.00%     77.55% |           0      0.00%     77.55% |           0      0.00%     77.55% |        6313     22.45%    100.00% |           0      0.00%    100.00% |           0      0.00%    100.00% # Number of accesses per bank
system.mem_ctrls20.memBankCount::total          28120                       # Number of accesses per bank
system.mem_ctrls21.pwrStateResidencyTicks::UNDEFINED 243771393852                       # Cumulative time (in ticks) in various power states
system.mem_ctrls21.bytes_written::ruby.dir_cntrl21      1789248                       # Number of bytes written to this memory
system.mem_ctrls21.bytes_written::total       1789248                       # Number of bytes written to this memory
system.mem_ctrls21.num_writes::ruby.dir_cntrl21        27957                       # Number of write requests responded to by this memory
system.mem_ctrls21.num_writes::total            27957                       # Number of write requests responded to by this memory
system.mem_ctrls21.bw_write::ruby.dir_cntrl21      7339860                       # Write bandwidth from this memory (bytes/s)
system.mem_ctrls21.bw_write::total            7339860                       # Write bandwidth from this memory (bytes/s)
system.mem_ctrls21.bw_total::ruby.dir_cntrl21      7339860                       # Total bandwidth to/from this memory (bytes/s)
system.mem_ctrls21.bw_total::total            7339860                       # Total bandwidth to/from this memory (bytes/s)
system.mem_ctrls21.memReq                       27957                       # Total number of memory requests
system.mem_ctrls21.memWrite                     27957                       # Number of memory writes
system.mem_ctrls21.memWaitCycles                27957                       # Delay stalled at the head of the bank queue
system.mem_ctrls21.totalStalls                  27957                       # Total number of stall cycles
system.mem_ctrls21.stallsPerReq                     1                       # Expected number of stall cycles per request
system.mem_ctrls21.memBankCount          |           0      0.00%      0.00% |           0      0.00%      0.00% |           0      0.00%      0.00% |           0      0.00%      0.00% |           0      0.00%      0.00% |        8203     29.34%     29.34% |           0      0.00%     29.34% |           0      0.00%     29.34% |           0      0.00%     29.34% |           0      0.00%     29.34% |           0      0.00%     29.34% |           0      0.00%     29.34% |           0      0.00%     29.34% |        6889     24.64%     53.98% |           0      0.00%     53.98% |           0      0.00%     53.98% |           0      0.00%     53.98% |           0      0.00%     53.98% |           0      0.00%     53.98% |           0      0.00%     53.98% |           0      0.00%     53.98% |        6466     23.13%     77.11% |           0      0.00%     77.11% |           0      0.00%     77.11% |           0      0.00%     77.11% |           0      0.00%     77.11% |           0      0.00%     77.11% |           0      0.00%     77.11% |           0      0.00%     77.11% |        6399     22.89%    100.00% |           0      0.00%    100.00% |           0      0.00%    100.00% # Number of accesses per bank
system.mem_ctrls21.memBankCount::total          27957                       # Number of accesses per bank
system.mem_ctrls22.pwrStateResidencyTicks::UNDEFINED 243771393852                       # Cumulative time (in ticks) in various power states
system.mem_ctrls22.bytes_written::ruby.dir_cntrl22      1789952                       # Number of bytes written to this memory
system.mem_ctrls22.bytes_written::total       1789952                       # Number of bytes written to this memory
system.mem_ctrls22.num_writes::ruby.dir_cntrl22        27968                       # Number of write requests responded to by this memory
system.mem_ctrls22.num_writes::total            27968                       # Number of write requests responded to by this memory
system.mem_ctrls22.bw_write::ruby.dir_cntrl22      7342748                       # Write bandwidth from this memory (bytes/s)
system.mem_ctrls22.bw_write::total            7342748                       # Write bandwidth from this memory (bytes/s)
system.mem_ctrls22.bw_total::ruby.dir_cntrl22      7342748                       # Total bandwidth to/from this memory (bytes/s)
system.mem_ctrls22.bw_total::total            7342748                       # Total bandwidth to/from this memory (bytes/s)
system.mem_ctrls22.memReq                       27968                       # Total number of memory requests
system.mem_ctrls22.memWrite                     27968                       # Number of memory writes
system.mem_ctrls22.memWaitCycles                27968                       # Delay stalled at the head of the bank queue
system.mem_ctrls22.totalStalls                  27968                       # Total number of stall cycles
system.mem_ctrls22.stallsPerReq                     1                       # Expected number of stall cycles per request
system.mem_ctrls22.memBankCount          |           0      0.00%      0.00% |           0      0.00%      0.00% |           0      0.00%      0.00% |           0      0.00%      0.00% |           0      0.00%      0.00% |        8341     29.82%     29.82% |           0      0.00%     29.82% |           0      0.00%     29.82% |           0      0.00%     29.82% |           0      0.00%     29.82% |           0      0.00%     29.82% |           0      0.00%     29.82% |           0      0.00%     29.82% |        6740     24.10%     53.92% |           0      0.00%     53.92% |           0      0.00%     53.92% |           0      0.00%     53.92% |           0      0.00%     53.92% |           0      0.00%     53.92% |           0      0.00%     53.92% |           0      0.00%     53.92% |        6557     23.44%     77.37% |           0      0.00%     77.37% |           0      0.00%     77.37% |           0      0.00%     77.37% |           0      0.00%     77.37% |           0      0.00%     77.37% |           0      0.00%     77.37% |           0      0.00%     77.37% |        6330     22.63%    100.00% |           0      0.00%    100.00% |           0      0.00%    100.00% # Number of accesses per bank
system.mem_ctrls22.memBankCount::total          27968                       # Number of accesses per bank
system.mem_ctrls23.pwrStateResidencyTicks::UNDEFINED 243771393852                       # Cumulative time (in ticks) in various power states
system.mem_ctrls23.bytes_read::ruby.dir_cntrl23      5015616                       # Number of bytes read from this memory
system.mem_ctrls23.bytes_read::total          5015616                       # Number of bytes read from this memory
system.mem_ctrls23.bytes_written::ruby.dir_cntrl23      1775360                       # Number of bytes written to this memory
system.mem_ctrls23.bytes_written::total       1775360                       # Number of bytes written to this memory
system.mem_ctrls23.num_reads::ruby.dir_cntrl23        78369                       # Number of read requests responded to by this memory
system.mem_ctrls23.num_reads::total             78369                       # Number of read requests responded to by this memory
system.mem_ctrls23.num_writes::ruby.dir_cntrl23        27740                       # Number of write requests responded to by this memory
system.mem_ctrls23.num_writes::total            27740                       # Number of write requests responded to by this memory
system.mem_ctrls23.bw_read::ruby.dir_cntrl23     20575080                       # Total read bandwidth from this memory (bytes/s)
system.mem_ctrls23.bw_read::total            20575080                       # Total read bandwidth from this memory (bytes/s)
system.mem_ctrls23.bw_write::ruby.dir_cntrl23      7282889                       # Write bandwidth from this memory (bytes/s)
system.mem_ctrls23.bw_write::total            7282889                       # Write bandwidth from this memory (bytes/s)
system.mem_ctrls23.bw_total::ruby.dir_cntrl23     27857969                       # Total bandwidth to/from this memory (bytes/s)
system.mem_ctrls23.bw_total::total           27857969                       # Total bandwidth to/from this memory (bytes/s)
system.mem_ctrls23.memReq                      106109                       # Total number of memory requests
system.mem_ctrls23.memRead                      78369                       # Number of memory reads
system.mem_ctrls23.memWrite                     27740                       # Number of memory writes
system.mem_ctrls23.memWaitCycles               106109                       # Delay stalled at the head of the bank queue
system.mem_ctrls23.totalStalls                 106109                       # Total number of stall cycles
system.mem_ctrls23.stallsPerReq                     1                       # Expected number of stall cycles per request
[...]
system.ruby.L1Cache_Controller.Load::total      1856668                      
system.ruby.L1Cache_Controller.Ifetch    |    58578194    100.00%    100.00% |           0      0.00%    100.00% |           0      0.00%    100.00% |           0      0.00%    100.00% |           0      0.00%    100.00% |           0      0.00%    100.00% |           0      0.00%    100.00% |           0      0.00%    100.00% |           0      0.00%    100.00% |           0      0.00%    100.00% |           0      0.00%    100.00% |           0      0.00%    100.00% |           0      0.00%    100.00% |           0      0.00%    100.00% |           0      0.00%    100.00% |           0      0.00%    100.00% |           0      0.00%    100.00% |           0      0.00%    100.00% |           0      0.00%    100.00% |           0      0.00%    100.00% |           0      0.00%    100.00% |           0      0.00%    100.00% |           0      0.00%    100.00% |           0      0.00%    100.00% |           0      0.00%    100.00% |           0      0.00%    100.00% |           0      0.00%    100.00% |           0      0.00%    100.00% |           0      0.00%    100.00% |           0      0.00%    100.00% |           0      0.00%    100.00% |           0      0.00%    100.00%
system.ruby.L1Cache_Controller.Ifetch::total     58578194                      
system.ruby.L1Cache_Controller.Store     |     2903679    100.00%    100.00% |           0      0.00%    100.00% |           0      0.00%    100.00% |           0      0.00%    100.00% |           0      0.00%    100.00% |           0      0.00%    100.00% |           0      0.00%    100.00% |           0      0.00%    100.00% |           0      0.00%    100.00% |           0      0.00%    100.00% |           0      0.00%    100.00% |           0      0.00%    100.00% |           0      0.00%    100.00% |           0      0.00%    100.00% |           0      0.00%    100.00% |           0      0.00%    100.00% |           0      0.00%    100.00% |           0      0.00%    100.00% |           0      0.00%    100.00% |           0      0.00%    100.00% |           0      0.00%    100.00% |           0      0.00%    100.00% |           0      0.00%    100.00% |           0      0.00%    100.00% |           0      0.00%    100.00% |           0      0.00%    100.00% |           0      0.00%    100.00% |           0      0.00%    100.00% |           0      0.00%    100.00% |           0      0.00%    100.00% |           0      0.00%    100.00% |           0      0.00%    100.00%
system.ruby.L1Cache_Controller.Store::total      2903679                      
system.ruby.L1Cache_Controller.Data      |     1532979    100.00%    100.00% |           0      0.00%    100.00% |           0      0.00%    100.00% |           0      0.00%    100.00% |           0      0.00%    100.00% |           0      0.00%    100.00% |           0      0.00%    100.00% |           0      0.00%    100.00% |           0      0.00%    100.00% |           0      0.00%    100.00% |           0      0.00%    100.00% |           0      0.00%    100.00% |           0      0.00%    100.00% |           0      0.00%    100.00% |           0      0.00%    100.00% |           0      0.00%    100.00% |           0      0.00%    100.00% |           0      0.00%    100.00% |           0      0.00%    100.00% |           0      0.00%    100.00% |           0      0.00%    100.00% |           0      0.00%    100.00% |           0      0.00%    100.00% |           0      0.00%    100.00% |           0      0.00%    100.00% |           0      0.00%    100.00% |           0      0.00%    100.00% |           0      0.00%    100.00% |           0      0.00%    100.00% |           0      0.00%    100.00% |           0      0.00%    100.00% |           0      0.00%    100.00%
system.ruby.L1Cache_Controller.Data::total      1532979                      
system.ruby.L1Cache_Controller.Replacement |     1532851    100.00%    100.00% |           0      0.00%    100.00% |           0      0.00%    100.00% |           0      0.00%    100.00% |           0      0.00%    100.00% |           0      0.00%    100.00% |           0      0.00%    100.00% |           0      0.00%    100.00% |           0      0.00%    100.00% |           0      0.00%    100.00% |           0      0.00%    100.00% |           0      0.00%    100.00% |           0      0.00%    100.00% |           0      0.00%    100.00% |           0      0.00%    100.00% |           0      0.00%    100.00% |           0      0.00%    100.00% |           0      0.00%    100.00% |           0      0.00%    100.00% |           0      0.00%    100.00% |           0      0.00%    100.00% |           0      0.00%    100.00% |           0      0.00%    100.00% |           0      0.00%    100.00% |           0      0.00%    100.00% |           0      0.00%    100.00% |           0      0.00%    100.00% |           0      0.00%    100.00% |           0      0.00%    100.00% |           0      0.00%    100.00% |           0      0.00%    100.00% |           0      0.00%    100.00%
system.ruby.L1Cache_Controller.Replacement::total      1532851                      
system.ruby.L1Cache_Controller.Writeback_Ack |     1532851    100.00%    100.00% |           0      0.00%    100.00% |           0      0.00%    100.00% |           0      0.00%    100.00% |           0      0.00%    100.00% |           0      0.00%    100.00% |           0      0.00%    100.00% |           0      0.00%    100.00% |           0      0.00%    100.00% |           0      0.00%    100.00% |           0      0.00%    100.00% |           0      0.00%    100.00% |           0      0.00%    100.00% |           0      0.00%    100.00% |           0      0.00%    100.00% |           0      0.00%    100.00% |           0      0.00%    100.00% |           0      0.00%    100.00% |           0      0.00%    100.00% |           0      0.00%    100.00% |           0      0.00%    100.00% |           0      0.00%    100.00% |           0      0.00%    100.00% |           0      0.00%    100.00% |           0      0.00%    100.00% |           0      0.00%    100.00% |           0      0.00%    100.00% |           0      0.00%    100.00% |           0      0.00%    100.00% |           0      0.00%    100.00% |           0      0.00%    100.00% |           0      0.00%    100.00%
system.ruby.L1Cache_Controller.Writeback_Ack::total      1532851                      
system.ruby.L1Cache_Controller.I.Load    |      628483    100.00%    100.00% |           0      0.00%    100.00% |           0      0.00%    100.00% |           0      0.00%    100.00% |           0      0.00%    100.00% |           0      0.00%    100.00% |           0      0.00%    100.00% |           0      0.00%    100.00% |           0      0.00%    100.00% |           0      0.00%    100.00% |           0      0.00%    100.00% |           0      0.00%    100.00% |           0      0.00%    100.00% |           0      0.00%    100.00% |           0      0.00%    100.00% |           0      0.00%    100.00% |           0      0.00%    100.00% |           0      0.00%    100.00% |           0      0.00%    100.00% |           0      0.00%    100.00% |           0      0.00%    100.00% |           0      0.00%    100.00% |           0      0.00%    100.00% |           0      0.00%    100.00% |           0      0.00%    100.00% |           0      0.00%    100.00% |           0      0.00%    100.00% |           0      0.00%    100.00% |           0      0.00%    100.00% |           0      0.00%    100.00% |           0      0.00%    100.00% |           0      0.00%    100.00%
system.ruby.L1Cache_Controller.I.Load::total       628483                      
system.ruby.L1Cache_Controller.I.Ifetch  |      330896    100.00%    100.00% |           0      0.00%    100.00% |           0      0.00%    100.00% |           0      0.00%    100.00% |           0      0.00%    100.00% |           0      0.00%    100.00% |           0      0.00%    100.00% |           0      0.00%    100.00% |           0      0.00%    100.00% |           0      0.00%    100.00% |           0      0.00%    100.00% |           0      0.00%    100.00% |           0      0.00%    100.00% |           0      0.00%    100.00% |           0      0.00%    100.00% |           0      0.00%    100.00% |           0      0.00%    100.00% |           0      0.00%    100.00% |           0      0.00%    100.00% |           0      0.00%    100.00% |           0      0.00%    100.00% |           0      0.00%    100.00% |           0      0.00%    100.00% |           0      0.00%    100.00% |           0      0.00%    100.00% |           0      0.00%    100.00% |           0      0.00%    100.00% |           0      0.00%    100.00% |           0      0.00%    100.00% |           0      0.00%    100.00% |           0      0.00%    100.00% |           0      0.00%    100.00%
system.ruby.L1Cache_Controller.I.Ifetch::total       330896                      
system.ruby.L1Cache_Controller.I.Store   |      573600    100.00%    100.00% |           0      0.00%    100.00% |           0      0.00%    100.00% |           0      0.00%    100.00% |           0      0.00%    100.00% |           0      0.00%    100.00% |           0      0.00%    100.00% |           0      0.00%    100.00% |           0      0.00%    100.00% |           0      0.00%    100.00% |           0      0.00%    100.00% |           0      0.00%    100.00% |           0      0.00%    100.00% |           0      0.00%    100.00% |           0      0.00%    100.00% |           0      0.00%    100.00% |           0      0.00%    100.00% |           0      0.00%    100.00% |           0      0.00%    100.00% |           0      0.00%    100.00% |           0      0.00%    100.00% |           0      0.00%    100.00% |           0      0.00%    100.00% |           0      0.00%    100.00% |           0      0.00%    100.00% |           0      0.00%    100.00% |           0      0.00%    100.00% |           0      0.00%    100.00% |           0      0.00%    100.00% |           0      0.00%    100.00% |           0      0.00%    100.00% |           0      0.00%    100.00%
system.ruby.L1Cache_Controller.I.Store::total       573600                      
system.ruby.L1Cache_Controller.M.Load    |     1228185    100.00%    100.00% |           0      0.00%    100.00% |           0      0.00%    100.00% |           0      0.00%    100.00% |           0      0.00%    100.00% |           0      0.00%    100.00% |           0      0.00%    100.00% |           0      0.00%    100.00% |           0      0.00%    100.00% |           0      0.00%    100.00% |           0      0.00%    100.00% |           0      0.00%    100.00% |           0      0.00%    100.00% |           0      0.00%    100.00% |           0      0.00%    100.00% |           0      0.00%    100.00% |           0      0.00%    100.00% |           0      0.00%    100.00% |           0      0.00%    100.00% |           0      0.00%    100.00% |           0      0.00%    100.00% |           0      0.00%    100.00% |           0      0.00%    100.00% |           0      0.00%    100.00% |           0      0.00%    100.00% |           0      0.00%    100.00% |           0      0.00%    100.00% |           0      0.00%    100.00% |           0      0.00%    100.00% |           0      0.00%    100.00% |           0      0.00%    100.00% |           0      0.00%    100.00%
system.ruby.L1Cache_Controller.M.Load::total      1228185                      
system.ruby.L1Cache_Controller.M.Ifetch  |    58247298    100.00%    100.00% |           0      0.00%    100.00% |           0      0.00%    100.00% |           0      0.00%    100.00% |           0      0.00%    100.00% |           0      0.00%    100.00% |           0      0.00%    100.00% |           0      0.00%    100.00% |           0      0.00%    100.00% |           0      0.00%    100.00% |           0      0.00%    100.00% |           0      0.00%    100.00% |           0      0.00%    100.00% |           0      0.00%    100.00% |           0      0.00%    100.00% |           0      0.00%    100.00% |           0      0.00%    100.00% |           0      0.00%    100.00% |           0      0.00%    100.00% |           0      0.00%    100.00% |           0      0.00%    100.00% |           0      0.00%    100.00% |           0      0.00%    100.00% |           0      0.00%    100.00% |           0      0.00%    100.00% |           0      0.00%    100.00% |           0      0.00%    100.00% |           0      0.00%    100.00% |           0      0.00%    100.00% |           0      0.00%    100.00% |           0      0.00%    100.00% |           0      0.00%    100.00%
system.ruby.L1Cache_Controller.M.Ifetch::total     58247298                      
system.ruby.L1Cache_Controller.M.Store   |     2330079    100.00%    100.00% |           0      0.00%    100.00% |           0      0.00%    100.00% |           0      0.00%    100.00% |           0      0.00%    100.00% |           0      0.00%    100.00% |           0      0.00%    100.00% |           0      0.00%    100.00% |           0      0.00%    100.00% |           0      0.00%    100.00% |           0      0.00%    100.00% |           0      0.00%    100.00% |           0      0.00%    100.00% |           0      0.00%    100.00% |           0      0.00%    100.00% |           0      0.00%    100.00% |           0      0.00%    100.00% |           0      0.00%    100.00% |           0      0.00%    100.00% |           0      0.00%    100.00% |           0      0.00%    100.00% |           0      0.00%    100.00% |           0      0.00%    100.00% |           0      0.00%    100.00% |           0      0.00%    100.00% |           0      0.00%    100.00% |           0      0.00%    100.00% |           0      0.00%    100.00% |           0      0.00%    100.00% |           0      0.00%    100.00% |           0      0.00%    100.00% |           0      0.00%    100.00%
system.ruby.L1Cache_Controller.M.Store::total      2330079                      
system.ruby.L1Cache_Controller.M.Replacement |     1532851    100.00%    100.00% |           0      0.00%    100.00% |           0      0.00%    100.00% |           0      0.00%    100.00% |           0      0.00%    100.00% |           0      0.00%    100.00% |           0      0.00%    100.00% |           0      0.00%    100.00% |           0      0.00%    100.00% |           0      0.00%    100.00% |           0      0.00%    100.00% |           0      0.00%    100.00% |           0      0.00%    100.00% |           0      0.00%    100.00% |           0      0.00%    100.00% |           0      0.00%    100.00% |           0      0.00%    100.00% |           0      0.00%    100.00% |           0      0.00%    100.00% |           0      0.00%    100.00% |           0      0.00%    100.00% |           0      0.00%    100.00% |           0      0.00%    100.00% |           0      0.00%    100.00% |           0      0.00%    100.00% |           0      0.00%    100.00% |           0      0.00%    100.00% |           0      0.00%    100.00% |           0      0.00%    100.00% |           0      0.00%    100.00% |           0      0.00%    100.00% |           0      0.00%    100.00%
system.ruby.L1Cache_Controller.M.Replacement::total      1532851                      
system.ruby.L1Cache_Controller.MI.Writeback_Ack |     1532851    100.00%    100.00% |           0      0.00%    100.00% |           0      0.00%    100.00% |           0      0.00%    100.00% |           0      0.00%    100.00% |           0      0.00%    100.00% |           0      0.00%    100.00% |           0      0.00%    100.00% |           0      0.00%    100.00% |           0      0.00%    100.00% |           0      0.00%    100.00% |           0      0.00%    100.00% |           0      0.00%    100.00% |           0      0.00%    100.00% |           0      0.00%    100.00% |           0      0.00%    100.00% |           0      0.00%    100.00% |           0      0.00%    100.00% |           0      0.00%    100.00% |           0      0.00%    100.00% |           0      0.00%    100.00% |           0      0.00%    100.00% |           0      0.00%    100.00% |           0      0.00%    100.00% |           0      0.00%    100.00% |           0      0.00%    100.00% |           0      0.00%    100.00% |           0      0.00%    100.00% |           0      0.00%    100.00% |           0      0.00%    100.00% |           0      0.00%    100.00% |           0      0.00%    100.00%
system.ruby.L1Cache_Controller.MI.Writeback_Ack::total      1532851                      
system.ruby.L1Cache_Controller.IS.Data   |      959379    100.00%    100.00% |           0      0.00%    100.00% |           0      0.00%    100.00% |           0      0.00%    100.00% |           0      0.00%    100.00% |           0      0.00%    100.00% |           0      0.00%    100.00% |           0      0.00%    100.00% |           0      0.00%    100.00% |           0      0.00%    100.00% |           0      0.00%    100.00% |           0      0.00%    100.00% |           0      0.00%    100.00% |           0      0.00%    100.00% |           0      0.00%    100.00% |           0      0.00%    100.00% |           0      0.00%    100.00% |           0      0.00%    100.00% |           0      0.00%    100.00% |           0      0.00%    100.00% |           0      0.00%    100.00% |           0      0.00%    100.00% |           0      0.00%    100.00% |           0      0.00%    100.00% |           0      0.00%    100.00% |           0      0.00%    100.00% |           0      0.00%    100.00% |           0      0.00%    100.00% |           0      0.00%    100.00% |           0      0.00%    100.00% |           0      0.00%    100.00% |           0      0.00%    100.00%
system.ruby.L1Cache_Controller.IS.Data::total       959379                      
system.ruby.L1Cache_Controller.IM.Data   |      573600    100.00%    100.00% |           0      0.00%    100.00% |           0      0.00%    100.00% |           0      0.00%    100.00% |           0      0.00%    100.00% |           0      0.00%    100.00% |           0      0.00%    100.00% |           0      0.00%    100.00% |           0      0.00%    100.00% |           0      0.00%    100.00% |           0      0.00%    100.00% |           0      0.00%    100.00% |           0      0.00%    100.00% |           0      0.00%    100.00% |           0      0.00%    100.00% |           0      0.00%    100.00% |           0      0.00%    100.00% |           0      0.00%    100.00% |           0      0.00%    100.00% |           0      0.00%    100.00% |           0      0.00%    100.00% |           0      0.00%    100.00% |           0      0.00%    100.00% |           0      0.00%    100.00% |           0      0.00%    100.00% |           0      0.00%    100.00% |           0      0.00%    100.00% |           0      0.00%    100.00% |           0      0.00%    100.00% |           0      0.00%    100.00% |           0      0.00%    100.00% |           0      0.00%    100.00%
system.ruby.L1Cache_Controller.IM.Data::total       573600                      

---------- End Simulation Statistics   ----------
