
---------- Begin Simulation Statistics ----------
l2_hits                                        400698                       # Number of l2 cache hits
l2_misses                                       26494                       # Number of l2 cache misses
l2_accesses                                    427192                       # Number of l2 cache accesses
sim_seconds                                  0.084469                       # Number of seconds simulated
sim_ticks                                 84468774684                       # Number of ticks simulated
final_tick                                84468774684                       # Number of ticks from beginning of simulation (restored from checkpoints and never reset)
sim_freq                                 1000000000000                       # Frequency of simulated ticks
host_inst_rate                                  44060                       # Simulator instruction rate (inst/s)
host_op_rate                                    65118                       # Simulator op (including micro ops) rate (op/s)
host_tick_rate                              189613436                       # Simulator tick rate (ticks/s)
host_mem_usage                                4940992                       # Number of bytes of host memory used
host_seconds                                   445.48                       # Real time elapsed on the host
sim_insts                                    19627901                       # Number of instructions simulated
sim_ops                                      29008545                       # Number of ops (including micro ops) simulated
system.voltage_domain.voltage                       1                       # Voltage in Volts
system.clk_domain.clock                          1000                       # Clock period in ticks
system.mem_ctrls00.pwrStateResidencyTicks::UNDEFINED  84468774684                       # Cumulative time (in ticks) in various power states
system.mem_ctrls00.bytes_read::ruby.dir_cntrl0      1310592                       # Number of bytes read from this memory
system.mem_ctrls00.bytes_read::total          1310592                       # Number of bytes read from this memory
system.mem_ctrls00.bytes_written::ruby.dir_cntrl0       590976                       # Number of bytes written to this memory
system.mem_ctrls00.bytes_written::total        590976                       # Number of bytes written to this memory
system.mem_ctrls00.num_reads::ruby.dir_cntrl0        20478                       # Number of read requests responded to by this memory
system.mem_ctrls00.num_reads::total             20478                       # Number of read requests responded to by this memory
system.mem_ctrls00.num_writes::ruby.dir_cntrl0         9234                       # Number of write requests responded to by this memory
system.mem_ctrls00.num_writes::total             9234                       # Number of write requests responded to by this memory
system.mem_ctrls00.bw_read::ruby.dir_cntrl0     15515698                       # Total read bandwidth from this memory (bytes/s)
system.mem_ctrls00.bw_read::total            15515698                       # Total read bandwidth from this memory (bytes/s)
system.mem_ctrls00.bw_write::ruby.dir_cntrl0      6996384                       # Write bandwidth from this memory (bytes/s)
system.mem_ctrls00.bw_write::total            6996384                       # Write bandwidth from this memory (bytes/s)
system.mem_ctrls00.bw_total::ruby.dir_cntrl0     22512082                       # Total bandwidth to/from this memory (bytes/s)
system.mem_ctrls00.bw_total::total           22512082                       # Total bandwidth to/from this memory (bytes/s)
system.mem_ctrls00.memReq                       29712                       # Total number of memory requests
system.mem_ctrls00.memRead                      20478                       # Number of memory reads
system.mem_ctrls00.memWrite                      9234                       # Number of memory writes
system.mem_ctrls00.memWaitCycles                29712                       # Delay stalled at the head of the bank queue
system.mem_ctrls00.totalStalls                  29712                       # Total number of stall cycles
system.mem_ctrls00.stallsPerReq                     1                       # Expected number of stall cycles per request
system.mem_ctrls00.memBankCount          |       11186     37.65%     37.65% |           0      0.00%     37.65% |           0      0.00%     37.65% |           0      0.00%     37.65% |           0      0.00%     37.65% |           0      0.00%     37.65% |           0      0.00%     37.65% |           0      0.00%     37.65% |       11167     37.58%     75.23% |           0      0.00%     75.23% |           0      0.00%     75.23% |           0      0.00%     75.23% |           0      0.00%     75.23% |           0      0.00%     75.23% |           0      0.00%     75.23% |           0      0.00%     75.23% |        4040     13.60%     88.83% |           0      0.00%     88.83% |           0      0.00%     88.83% |           0      0.00%     88.83% |           0      0.00%     88.83% |           0      0.00%     88.83% |           0      0.00%     88.83% |           0      0.00%     88.83% |        3319     11.17%    100.00% |           0      0.00%    100.00% |           0      0.00%    100.00% |           0      0.00%    100.00% |           0      0.00%    100.00% |           0      0.00%    100.00% |           0      0.00%    100.00% |           0      0.00%    100.00% # Number of accesses per bank
system.mem_ctrls00.memBankCount::total          29712                       # Number of accesses per bank
system.mem_ctrls01.pwrStateResidencyTicks::UNDEFINED  84468774684                       # Cumulative time (in ticks) in various power states
system.mem_ctrls01.bytes_written::ruby.dir_cntrl1       551040                       # Number of bytes written to this memory
system.mem_ctrls01.bytes_written::total        551040                       # Number of bytes written to this memory
system.mem_ctrls01.num_writes::ruby.dir_cntrl1         8610                       # Number of write requests responded to by this memory
system.mem_ctrls01.num_writes::total             8610                       # Number of write requests responded to by this memory
system.mem_ctrls01.bw_write::ruby.dir_cntrl1      6523594                       # Write bandwidth from this memory (bytes/s)
system.mem_ctrls01.bw_write::total            6523594                       # Write bandwidth from this memory (bytes/s)
system.mem_ctrls01.bw_total::ruby.dir_cntrl1      6523594                       # Total bandwidth to/from this memory (bytes/s)
system.mem_ctrls01.bw_total::total            6523594                       # Total bandwidth to/from this memory (bytes/s)
system.mem_ctrls01.memReq                        8610                       # Total number of memory requests
system.mem_ctrls01.memWrite                      8610                       # Number of memory writes
system.mem_ctrls01.memWaitCycles                 8610                       # Delay stalled at the head of the bank queue
system.mem_ctrls01.totalStalls                   8610                       # Total number of stall cycles
system.mem_ctrls01.stallsPerReq                     1                       # Expected number of stall cycles per request
system.mem_ctrls01.memBankCount          |        4993     57.99%     57.99% |           0      0.00%     57.99% |           0      0.00%     57.99% |           0      0.00%     57.99% |           0      0.00%     57.99% |           0      0.00%     57.99% |           0      0.00%     57.99% |           0      0.00%     57.99% |        2513     29.19%     87.18% |           0      0.00%     87.18% |           0      0.00%     87.18% |           0      0.00%     87.18% |           0      0.00%     87.18% |           0      0.00%     87.18% |           0      0.00%     87.18% |           0      0.00%     87.18% |         679      7.89%     95.06% |           0      0.00%     95.06% |           0      0.00%     95.06% |           0      0.00%     95.06% |           0      0.00%     95.06% |           0      0.00%     95.06% |           0      0.00%     95.06% |           0      0.00%     95.06% |         425      4.94%    100.00% |           0      0.00%    100.00% |           0      0.00%    100.00% |           0      0.00%    100.00% |           0      0.00%    100.00% |           0      0.00%    100.00% |           0      0.00%    100.00% |           0      0.00%    100.00% # Number of accesses per bank
system.mem_ctrls01.memBankCount::total           8610                       # Number of accesses per bank
system.mem_ctrls02.pwrStateResidencyTicks::UNDEFINED  84468774684                       # Cumulative time (in ticks) in various power states
system.mem_ctrls02.bytes_written::ruby.dir_cntrl2       321856                       # Number of bytes written to this memory
system.mem_ctrls02.bytes_written::total        321856                       # Number of bytes written to this memory
system.mem_ctrls02.num_writes::ruby.dir_cntrl2         5029                       # Number of write requests responded to by this memory
system.mem_ctrls02.num_writes::total             5029                       # Number of write requests responded to by this memory
system.mem_ctrls02.bw_write::ruby.dir_cntrl2      3810355                       # Write bandwidth from this memory (bytes/s)
system.mem_ctrls02.bw_write::total            3810355                       # Write bandwidth from this memory (bytes/s)
system.mem_ctrls02.bw_total::ruby.dir_cntrl2      3810355                       # Total bandwidth to/from this memory (bytes/s)
system.mem_ctrls02.bw_total::total            3810355                       # Total bandwidth to/from this memory (bytes/s)
system.mem_ctrls02.memReq                        5029                       # Total number of memory requests
system.mem_ctrls02.memWrite                      5029                       # Number of memory writes
system.mem_ctrls02.memWaitCycles                 5029                       # Delay stalled at the head of the bank queue
system.mem_ctrls02.totalStalls                   5029                       # Total number of stall cycles
system.mem_ctrls02.stallsPerReq                     1                       # Expected number of stall cycles per request
system.mem_ctrls02.memBankCount          |        2052     40.80%     40.80% |           0      0.00%     40.80% |           0      0.00%     40.80% |           0      0.00%     40.80% |           0      0.00%     40.80% |           0      0.00%     40.80% |           0      0.00%     40.80% |           0      0.00%     40.80% |        1464     29.11%     69.91% |           0      0.00%     69.91% |           0      0.00%     69.91% |           0      0.00%     69.91% |           0      0.00%     69.91% |           0      0.00%     69.91% |           0      0.00%     69.91% |           0      0.00%     69.91% |         643     12.79%     82.70% |           0      0.00%     82.70% |           0      0.00%     82.70% |           0      0.00%     82.70% |           0      0.00%     82.70% |           0      0.00%     82.70% |           0      0.00%     82.70% |           0      0.00%     82.70% |         870     17.30%    100.00% |           0      0.00%    100.00% |           0      0.00%    100.00% |           0      0.00%    100.00% |           0      0.00%    100.00% |           0      0.00%    100.00% |           0      0.00%    100.00% |           0      0.00%    100.00% # Number of accesses per bank
system.mem_ctrls02.memBankCount::total           5029                       # Number of accesses per bank
system.mem_ctrls03.pwrStateResidencyTicks::UNDEFINED  84468774684                       # Cumulative time (in ticks) in various power states
system.mem_ctrls03.bytes_read::ruby.dir_cntrl3      1336320                       # Number of bytes read from this memory
system.mem_ctrls03.bytes_read::total          1336320                       # Number of bytes read from this memory
system.mem_ctrls03.bytes_written::ruby.dir_cntrl3       453376                       # Number of bytes written to this memory
system.mem_ctrls03.bytes_written::total        453376                       # Number of bytes written to this memory
system.mem_ctrls03.num_reads::ruby.dir_cntrl3        20880                       # Number of read requests responded to by this memory
system.mem_ctrls03.num_reads::total             20880                       # Number of read requests responded to by this memory
system.mem_ctrls03.num_writes::ruby.dir_cntrl3         7084                       # Number of write requests responded to by this memory
system.mem_ctrls03.num_writes::total             7084                       # Number of write requests responded to by this memory
system.mem_ctrls03.bw_read::ruby.dir_cntrl3     15820284                       # Total read bandwidth from this memory (bytes/s)
system.mem_ctrls03.bw_read::total            15820284                       # Total read bandwidth from this memory (bytes/s)
system.mem_ctrls03.bw_write::ruby.dir_cntrl3      5367380                       # Write bandwidth from this memory (bytes/s)
system.mem_ctrls03.bw_write::total            5367380                       # Write bandwidth from this memory (bytes/s)
system.mem_ctrls03.bw_total::ruby.dir_cntrl3     21187664                       # Total bandwidth to/from this memory (bytes/s)
system.mem_ctrls03.bw_total::total           21187664                       # Total bandwidth to/from this memory (bytes/s)
system.mem_ctrls03.memReq                       27964                       # Total number of memory requests
system.mem_ctrls03.memRead                      20880                       # Number of memory reads
system.mem_ctrls03.memWrite                      7084                       # Number of memory writes
system.mem_ctrls03.memWaitCycles                27964                       # Delay stalled at the head of the bank queue
system.mem_ctrls03.totalStalls                  27964                       # Total number of stall cycles
system.mem_ctrls03.stallsPerReq                     1                       # Expected number of stall cycles per request
system.mem_ctrls03.memBankCount          |        6905     24.69%     24.69% |        1168      4.18%     28.87% |        1346      4.81%     33.68% |         976      3.49%     37.17% |           0      0.00%     37.17% |           0      0.00%     37.17% |           0      0.00%     37.17% |           0      0.00%     37.17% |        5166     18.47%     55.65% |        1318      4.71%     60.36% |         754      2.70%     63.06% |         720      2.57%     65.63% |           0      0.00%     65.63% |           0      0.00%     65.63% |           0      0.00%     65.63% |           0      0.00%     65.63% |        1902      6.80%     72.43% |         675      2.41%     74.85% |         672      2.40%     77.25% |         933      3.34%     80.59% |           0      0.00%     80.59% |           0      0.00%     80.59% |           0      0.00%     80.59% |           0      0.00%     80.59% |        2606      9.32%     89.90% |         645      2.31%     92.21% |        1007      3.60%     95.81% |        1171      4.19%    100.00% |           0      0.00%    100.00% |           0      0.00%    100.00% |           0      0.00%    100.00% |           0      0.00%    100.00% # Number of accesses per bank
system.mem_ctrls03.memBankCount::total          27964                       # Number of accesses per bank
system.mem_ctrls04.pwrStateResidencyTicks::UNDEFINED  84468774684                       # Cumulative time (in ticks) in various power states
system.mem_ctrls04.bytes_written::ruby.dir_cntrl4      1693184                       # Number of bytes written to this memory
system.mem_ctrls04.bytes_written::total       1693184                       # Number of bytes written to this memory
system.mem_ctrls04.num_writes::ruby.dir_cntrl4        26456                       # Number of write requests responded to by this memory
system.mem_ctrls04.num_writes::total            26456                       # Number of write requests responded to by this memory
system.mem_ctrls04.bw_write::ruby.dir_cntrl4     20045088                       # Write bandwidth from this memory (bytes/s)
system.mem_ctrls04.bw_write::total           20045088                       # Write bandwidth from this memory (bytes/s)
system.mem_ctrls04.bw_total::ruby.dir_cntrl4     20045088                       # Total bandwidth to/from this memory (bytes/s)
system.mem_ctrls04.bw_total::total           20045088                       # Total bandwidth to/from this memory (bytes/s)
system.mem_ctrls04.memReq                       26456                       # Total number of memory requests
system.mem_ctrls04.memWrite                     26456                       # Number of memory writes
system.mem_ctrls04.memWaitCycles                26456                       # Delay stalled at the head of the bank queue
system.mem_ctrls04.totalStalls                  26456                       # Total number of stall cycles
system.mem_ctrls04.stallsPerReq                     1                       # Expected number of stall cycles per request
system.mem_ctrls04.memBankCount          |           0      0.00%      0.00% |        2278      8.61%      8.61% |           0      0.00%      8.61% |           0      0.00%      8.61% |           0      0.00%      8.61% |           0      0.00%      8.61% |           0      0.00%      8.61% |           0      0.00%      8.61% |           0      0.00%      8.61% |       22178     83.83%     92.44% |           0      0.00%     92.44% |           0      0.00%     92.44% |           0      0.00%     92.44% |           0      0.00%     92.44% |           0      0.00%     92.44% |           0      0.00%     92.44% |           0      0.00%     92.44% |        1308      4.94%     97.38% |           0      0.00%     97.38% |           0      0.00%     97.38% |           0      0.00%     97.38% |           0      0.00%     97.38% |           0      0.00%     97.38% |           0      0.00%     97.38% |           0      0.00%     97.38% |         692      2.62%    100.00% |           0      0.00%    100.00% |           0      0.00%    100.00% |           0      0.00%    100.00% |           0      0.00%    100.00% |           0      0.00%    100.00% |           0      0.00%    100.00% # Number of accesses per bank
system.mem_ctrls04.memBankCount::total          26456                       # Number of accesses per bank
system.mem_ctrls05.pwrStateResidencyTicks::UNDEFINED  84468774684                       # Cumulative time (in ticks) in various power states
system.mem_ctrls05.bytes_written::ruby.dir_cntrl5      1449728                       # Number of bytes written to this memory
system.mem_ctrls05.bytes_written::total       1449728                       # Number of bytes written to this memory
system.mem_ctrls05.num_writes::ruby.dir_cntrl5        22652                       # Number of write requests responded to by this memory
system.mem_ctrls05.num_writes::total            22652                       # Number of write requests responded to by this memory
system.mem_ctrls05.bw_write::ruby.dir_cntrl5     17162887                       # Write bandwidth from this memory (bytes/s)
system.mem_ctrls05.bw_write::total           17162887                       # Write bandwidth from this memory (bytes/s)
system.mem_ctrls05.bw_total::ruby.dir_cntrl5     17162887                       # Total bandwidth to/from this memory (bytes/s)
system.mem_ctrls05.bw_total::total           17162887                       # Total bandwidth to/from this memory (bytes/s)
system.mem_ctrls05.memReq                       22652                       # Total number of memory requests
system.mem_ctrls05.memWrite                     22652                       # Number of memory writes
system.mem_ctrls05.memWaitCycles                22652                       # Delay stalled at the head of the bank queue
system.mem_ctrls05.totalStalls                  22652                       # Total number of stall cycles
system.mem_ctrls05.stallsPerReq                     1                       # Expected number of stall cycles per request
system.mem_ctrls05.memBankCount          |           0      0.00%      0.00% |        1579      6.97%      6.97% |           0      0.00%      6.97% |           0      0.00%      6.97% |           0      0.00%      6.97% |           0      0.00%      6.97% |           0      0.00%      6.97% |           0      0.00%      6.97% |           0      0.00%      6.97% |       18065     79.75%     86.72% |           0      0.00%     86.72% |           0      0.00%     86.72% |           0      0.00%     86.72% |           0      0.00%     86.72% |           0      0.00%     86.72% |           0      0.00%     86.72% |           0      0.00%     86.72% |        2104      9.29%     96.01% |           0      0.00%     96.01% |           0      0.00%     96.01% |           0      0.00%     96.01% |           0      0.00%     96.01% |           0      0.00%     96.01% |           0      0.00%     96.01% |           0      0.00%     96.01% |         904      3.99%    100.00% |           0      0.00%    100.00% |           0      0.00%    100.00% |           0      0.00%    100.00% |           0      0.00%    100.00% |           0      0.00%    100.00% |           0      0.00%    100.00% # Number of accesses per bank
system.mem_ctrls05.memBankCount::total          22652                       # Number of accesses per bank
system.mem_ctrls06.pwrStateResidencyTicks::UNDEFINED  84468774684                       # Cumulative time (in ticks) in various power states
system.mem_ctrls06.bytes_written::ruby.dir_cntrl6      1509632                       # Number of bytes written to this memory
system.mem_ctrls06.bytes_written::total       1509632                       # Number of bytes written to this memory
system.mem_ctrls06.num_writes::ruby.dir_cntrl6        23588                       # Number of write requests responded to by this memory
system.mem_ctrls06.num_writes::total            23588                       # Number of write requests responded to by this memory
system.mem_ctrls06.bw_write::ruby.dir_cntrl6     17872072                       # Write bandwidth from this memory (bytes/s)
system.mem_ctrls06.bw_write::total           17872072                       # Write bandwidth from this memory (bytes/s)
system.mem_ctrls06.bw_total::ruby.dir_cntrl6     17872072                       # Total bandwidth to/from this memory (bytes/s)
system.mem_ctrls06.bw_total::total           17872072                       # Total bandwidth to/from this memory (bytes/s)
system.mem_ctrls06.memReq                       23588                       # Total number of memory requests
system.mem_ctrls06.memWrite                     23588                       # Number of memory writes
system.mem_ctrls06.memWaitCycles                23588                       # Delay stalled at the head of the bank queue
system.mem_ctrls06.totalStalls                  23588                       # Total number of stall cycles
system.mem_ctrls06.stallsPerReq                     1                       # Expected number of stall cycles per request
system.mem_ctrls06.memBankCount          |           0      0.00%      0.00% |        2009      8.52%      8.52% |           0      0.00%      8.52% |           0      0.00%      8.52% |           0      0.00%      8.52% |           0      0.00%      8.52% |           0      0.00%      8.52% |           0      0.00%      8.52% |           0      0.00%      8.52% |       17754     75.27%     83.78% |           0      0.00%     83.78% |           0      0.00%     83.78% |           0      0.00%     83.78% |           0      0.00%     83.78% |           0      0.00%     83.78% |           0      0.00%     83.78% |           0      0.00%     83.78% |        1127      4.78%     88.56% |           0      0.00%     88.56% |           0      0.00%     88.56% |           0      0.00%     88.56% |           0      0.00%     88.56% |           0      0.00%     88.56% |           0      0.00%     88.56% |           0      0.00%     88.56% |        2698     11.44%    100.00% |           0      0.00%    100.00% |           0      0.00%    100.00% |           0      0.00%    100.00% |           0      0.00%    100.00% |           0      0.00%    100.00% |           0      0.00%    100.00% # Number of accesses per bank
system.mem_ctrls06.memBankCount::total          23588                       # Number of accesses per bank
system.mem_ctrls07.pwrStateResidencyTicks::UNDEFINED  84468774684                       # Cumulative time (in ticks) in various power states
system.mem_ctrls07.bytes_read::ruby.dir_cntrl7      5060480                       # Number of bytes read from this memory
system.mem_ctrls07.bytes_read::total          5060480                       # Number of bytes read from this memory
system.mem_ctrls07.bytes_written::ruby.dir_cntrl7       650496                       # Number of bytes written to this memory
system.mem_ctrls07.bytes_written::total        650496                       # Number of bytes written to this memory
system.mem_ctrls07.num_reads::ruby.dir_cntrl7        79070                       # Number of read requests responded to by this memory
system.mem_ctrls07.num_reads::total             79070                       # Number of read requests responded to by this memory
system.mem_ctrls07.num_writes::ruby.dir_cntrl7        10164                       # Number of write requests responded to by this memory
system.mem_ctrls07.num_writes::total            10164                       # Number of write requests responded to by this memory
system.mem_ctrls07.bw_read::ruby.dir_cntrl7     59909476                       # Total read bandwidth from this memory (bytes/s)
system.mem_ctrls07.bw_read::total            59909476                       # Total read bandwidth from this memory (bytes/s)
system.mem_ctrls07.bw_write::ruby.dir_cntrl7      7701023                       # Write bandwidth from this memory (bytes/s)
system.mem_ctrls07.bw_write::total            7701023                       # Write bandwidth from this memory (bytes/s)
system.mem_ctrls07.bw_total::ruby.dir_cntrl7     67610499                       # Total bandwidth to/from this memory (bytes/s)
system.mem_ctrls07.bw_total::total           67610499                       # Total bandwidth to/from this memory (bytes/s)
system.mem_ctrls07.memReq                       89234                       # Total number of memory requests
system.mem_ctrls07.memRead                      79070                       # Number of memory reads
system.mem_ctrls07.memWrite                     10164                       # Number of memory writes
system.mem_ctrls07.memWaitCycles                89234                       # Delay stalled at the head of the bank queue
system.mem_ctrls07.totalStalls                  89234                       # Total number of stall cycles
system.mem_ctrls07.stallsPerReq                     1                       # Expected number of stall cycles per request
system.mem_ctrls07.memBankCount          |           0      0.00%      0.00% |        7772      8.71%      8.71% |           0      0.00%      8.71% |           0      0.00%      8.71% |           0      0.00%      8.71% |           0      0.00%      8.71% |           0      0.00%      8.71% |           0      0.00%      8.71% |           0      0.00%      8.71% |       70471     78.97%     87.68% |           0      0.00%     87.68% |           0      0.00%     87.68% |           0      0.00%     87.68% |           0      0.00%     87.68% |           0      0.00%     87.68% |           0      0.00%     87.68% |           0      0.00%     87.68% |        5678      6.36%     94.05% |           0      0.00%     94.05% |           0      0.00%     94.05% |           0      0.00%     94.05% |           0      0.00%     94.05% |           0      0.00%     94.05% |           0      0.00%     94.05% |           0      0.00%     94.05% |        5313      5.95%    100.00% |           0      0.00%    100.00% |           0      0.00%    100.00% |           0      0.00%    100.00% |           0      0.00%    100.00% |           0      0.00%    100.00% |           0      0.00%    100.00% # Number of accesses per bank
system.mem_ctrls07.memBankCount::total          89234                       # Number of accesses per bank
system.mem_ctrls08.pwrStateResidencyTicks::UNDEFINED  84468774684                       # Cumulative time (in ticks) in various power states
system.mem_ctrls08.bytes_read::ruby.dir_cntrl8      4610176                       # Number of bytes read from this memory
system.mem_ctrls08.bytes_read::total          4610176                       # Number of bytes read from this memory
system.mem_ctrls08.bytes_written::ruby.dir_cntrl8      1321536                       # Number of bytes written to this memory
system.mem_ctrls08.bytes_written::total       1321536                       # Number of bytes written to this memory
system.mem_ctrls08.num_reads::ruby.dir_cntrl8        72034                       # Number of read requests responded to by this memory
system.mem_ctrls08.num_reads::total             72034                       # Number of read requests responded to by this memory
system.mem_ctrls08.num_writes::ruby.dir_cntrl8        20649                       # Number of write requests responded to by this memory
system.mem_ctrls08.num_writes::total            20649                       # Number of write requests responded to by this memory
system.mem_ctrls08.bw_read::ruby.dir_cntrl8     54578464                       # Total read bandwidth from this memory (bytes/s)
system.mem_ctrls08.bw_read::total            54578464                       # Total read bandwidth from this memory (bytes/s)
system.mem_ctrls08.bw_write::ruby.dir_cntrl8     15645261                       # Write bandwidth from this memory (bytes/s)
system.mem_ctrls08.bw_write::total           15645261                       # Write bandwidth from this memory (bytes/s)
system.mem_ctrls08.bw_total::ruby.dir_cntrl8     70223725                       # Total bandwidth to/from this memory (bytes/s)
system.mem_ctrls08.bw_total::total           70223725                       # Total bandwidth to/from this memory (bytes/s)
system.mem_ctrls08.memReq                       92683                       # Total number of memory requests
system.mem_ctrls08.memRead                      72034                       # Number of memory reads
system.mem_ctrls08.memWrite                     20649                       # Number of memory writes
system.mem_ctrls08.memWaitCycles                92683                       # Delay stalled at the head of the bank queue
system.mem_ctrls08.totalStalls                  92683                       # Total number of stall cycles
system.mem_ctrls08.stallsPerReq                     1                       # Expected number of stall cycles per request
system.mem_ctrls08.memBankCount          |           0      0.00%      0.00% |           0      0.00%      0.00% |       11010     11.88%     11.88% |           0      0.00%     11.88% |           0      0.00%     11.88% |           0      0.00%     11.88% |           0      0.00%     11.88% |           0      0.00%     11.88% |           0      0.00%     11.88% |           0      0.00%     11.88% |       51979     56.08%     67.96% |           0      0.00%     67.96% |           0      0.00%     67.96% |           0      0.00%     67.96% |           0      0.00%     67.96% |           0      0.00%     67.96% |           0      0.00%     67.96% |           0      0.00%     67.96% |        6169      6.66%     74.62% |           0      0.00%     74.62% |           0      0.00%     74.62% |           0      0.00%     74.62% |           0      0.00%     74.62% |           0      0.00%     74.62% |           0      0.00%     74.62% |           0      0.00%     74.62% |       23525     25.38%    100.00% |           0      0.00%    100.00% |           0      0.00%    100.00% |           0      0.00%    100.00% |           0      0.00%    100.00% |           0      0.00%    100.00% # Number of accesses per bank
system.mem_ctrls08.memBankCount::total          92683                       # Number of accesses per bank
system.mem_ctrls09.pwrStateResidencyTicks::UNDEFINED  84468774684                       # Cumulative time (in ticks) in various power states
system.mem_ctrls09.bytes_written::ruby.dir_cntrl9      1491648                       # Number of bytes written to this memory
system.mem_ctrls09.bytes_written::total       1491648                       # Number of bytes written to this memory
system.mem_ctrls09.num_writes::ruby.dir_cntrl9        23307                       # Number of write requests responded to by this memory
system.mem_ctrls09.num_writes::total            23307                       # Number of write requests responded to by this memory
system.mem_ctrls09.bw_write::ruby.dir_cntrl9     17659165                       # Write bandwidth from this memory (bytes/s)
system.mem_ctrls09.bw_write::total           17659165                       # Write bandwidth from this memory (bytes/s)
system.mem_ctrls09.bw_total::ruby.dir_cntrl9     17659165                       # Total bandwidth to/from this memory (bytes/s)
system.mem_ctrls09.bw_total::total           17659165                       # Total bandwidth to/from this memory (bytes/s)
system.mem_ctrls09.memReq                       23307                       # Total number of memory requests
system.mem_ctrls09.memWrite                     23307                       # Number of memory writes
system.mem_ctrls09.memWaitCycles                23307                       # Delay stalled at the head of the bank queue
system.mem_ctrls09.totalStalls                  23307                       # Total number of stall cycles
system.mem_ctrls09.stallsPerReq                     1                       # Expected number of stall cycles per request
system.mem_ctrls09.memBankCount          |           0      0.00%      0.00% |           0      0.00%      0.00% |        2714     11.64%     11.64% |           0      0.00%     11.64% |           0      0.00%     11.64% |           0      0.00%     11.64% |           0      0.00%     11.64% |           0      0.00%     11.64% |           0      0.00%     11.64% |           0      0.00%     11.64% |       15484     66.43%     78.08% |           0      0.00%     78.08% |           0      0.00%     78.08% |           0      0.00%     78.08% |           0      0.00%     78.08% |           0      0.00%     78.08% |           0      0.00%     78.08% |           0      0.00%     78.08% |        1138      4.88%     82.96% |           0      0.00%     82.96% |           0      0.00%     82.96% |           0      0.00%     82.96% |           0      0.00%     82.96% |           0      0.00%     82.96% |           0      0.00%     82.96% |           0      0.00%     82.96% |        3971     17.04%    100.00% |           0      0.00%    100.00% |           0      0.00%    100.00% |           0      0.00%    100.00% |           0      0.00%    100.00% |           0      0.00%    100.00% # Number of accesses per bank
system.mem_ctrls09.memBankCount::total          23307                       # Number of accesses per bank
system.mem_ctrls10.pwrStateResidencyTicks::UNDEFINED  84468774684                       # Cumulative time (in ticks) in various power states
system.mem_ctrls10.bytes_written::ruby.dir_cntrl10      1426816                       # Number of bytes written to this memory
system.mem_ctrls10.bytes_written::total       1426816                       # Number of bytes written to this memory
system.mem_ctrls10.num_writes::ruby.dir_cntrl10        22294                       # Number of write requests responded to by this memory
system.mem_ctrls10.num_writes::total            22294                       # Number of write requests responded to by this memory
system.mem_ctrls10.bw_write::ruby.dir_cntrl10     16891638                       # Write bandwidth from this memory (bytes/s)
system.mem_ctrls10.bw_write::total           16891638                       # Write bandwidth from this memory (bytes/s)
system.mem_ctrls10.bw_total::ruby.dir_cntrl10     16891638                       # Total bandwidth to/from this memory (bytes/s)
system.mem_ctrls10.bw_total::total           16891638                       # Total bandwidth to/from this memory (bytes/s)
system.mem_ctrls10.memReq                       22294                       # Total number of memory requests
system.mem_ctrls10.memWrite                     22294                       # Number of memory writes
system.mem_ctrls10.memWaitCycles                22294                       # Delay stalled at the head of the bank queue
system.mem_ctrls10.totalStalls                  22294                       # Total number of stall cycles
system.mem_ctrls10.stallsPerReq                     1                       # Expected number of stall cycles per request
system.mem_ctrls10.memBankCount          |           0      0.00%      0.00% |           0      0.00%      0.00% |        2015      9.04%      9.04% |           0      0.00%      9.04% |           0      0.00%      9.04% |           0      0.00%      9.04% |           0      0.00%      9.04% |           0      0.00%      9.04% |           0      0.00%      9.04% |           0      0.00%      9.04% |        6218     27.89%     36.93% |           0      0.00%     36.93% |           0      0.00%     36.93% |           0      0.00%     36.93% |           0      0.00%     36.93% |           0      0.00%     36.93% |           0      0.00%     36.93% |           0      0.00%     36.93% |        1708      7.66%     44.59% |           0      0.00%     44.59% |           0      0.00%     44.59% |           0      0.00%     44.59% |           0      0.00%     44.59% |           0      0.00%     44.59% |           0      0.00%     44.59% |           0      0.00%     44.59% |       12353     55.41%    100.00% |           0      0.00%    100.00% |           0      0.00%    100.00% |           0      0.00%    100.00% |           0      0.00%    100.00% |           0      0.00%    100.00% # Number of accesses per bank
system.mem_ctrls10.memBankCount::total          22294                       # Number of accesses per bank
system.mem_ctrls11.pwrStateResidencyTicks::UNDEFINED  84468774684                       # Cumulative time (in ticks) in various power states
system.mem_ctrls11.bytes_written::ruby.dir_cntrl11       611008                       # Number of bytes written to this memory
system.mem_ctrls11.bytes_written::total        611008                       # Number of bytes written to this memory
system.mem_ctrls11.num_writes::ruby.dir_cntrl11         9547                       # Number of write requests responded to by this memory
system.mem_ctrls11.num_writes::total             9547                       # Number of write requests responded to by this memory
system.mem_ctrls11.bw_write::ruby.dir_cntrl11      7233537                       # Write bandwidth from this memory (bytes/s)
system.mem_ctrls11.bw_write::total            7233537                       # Write bandwidth from this memory (bytes/s)
system.mem_ctrls11.bw_total::ruby.dir_cntrl11      7233537                       # Total bandwidth to/from this memory (bytes/s)
system.mem_ctrls11.bw_total::total            7233537                       # Total bandwidth to/from this memory (bytes/s)
system.mem_ctrls11.memReq                        9547                       # Total number of memory requests
system.mem_ctrls11.memWrite                      9547                       # Number of memory writes
system.mem_ctrls11.memWaitCycles                 9547                       # Delay stalled at the head of the bank queue
system.mem_ctrls11.totalStalls                   9547                       # Total number of stall cycles
system.mem_ctrls11.stallsPerReq                     1                       # Expected number of stall cycles per request
system.mem_ctrls11.memBankCount          |           0      0.00%      0.00% |           0      0.00%      0.00% |        2441     25.57%     25.57% |           0      0.00%     25.57% |           0      0.00%     25.57% |           0      0.00%     25.57% |           0      0.00%     25.57% |           0      0.00%     25.57% |           0      0.00%     25.57% |           0      0.00%     25.57% |        1613     16.90%     42.46% |           0      0.00%     42.46% |           0      0.00%     42.46% |           0      0.00%     42.46% |           0      0.00%     42.46% |           0      0.00%     42.46% |           0      0.00%     42.46% |           0      0.00%     42.46% |         715      7.49%     49.95% |           0      0.00%     49.95% |           0      0.00%     49.95% |           0      0.00%     49.95% |           0      0.00%     49.95% |           0      0.00%     49.95% |           0      0.00%     49.95% |           0      0.00%     49.95% |        4778     50.05%    100.00% |           0      0.00%    100.00% |           0      0.00%    100.00% |           0      0.00%    100.00% |           0      0.00%    100.00% |           0      0.00%    100.00% # Number of accesses per bank
system.mem_ctrls11.memBankCount::total           9547                       # Number of accesses per bank
system.mem_ctrls12.pwrStateResidencyTicks::UNDEFINED  84468774684                       # Cumulative time (in ticks) in various power states
system.mem_ctrls12.bytes_written::ruby.dir_cntrl12       458112                       # Number of bytes written to this memory
system.mem_ctrls12.bytes_written::total        458112                       # Number of bytes written to this memory
system.mem_ctrls12.num_writes::ruby.dir_cntrl12         7158                       # Number of write requests responded to by this memory
system.mem_ctrls12.num_writes::total             7158                       # Number of write requests responded to by this memory
system.mem_ctrls12.bw_write::ruby.dir_cntrl12      5423448                       # Write bandwidth from this memory (bytes/s)
system.mem_ctrls12.bw_write::total            5423448                       # Write bandwidth from this memory (bytes/s)
system.mem_ctrls12.bw_total::ruby.dir_cntrl12      5423448                       # Total bandwidth to/from this memory (bytes/s)
system.mem_ctrls12.bw_total::total            5423448                       # Total bandwidth to/from this memory (bytes/s)
system.mem_ctrls12.memReq                        7158                       # Total number of memory requests
system.mem_ctrls12.memWrite                      7158                       # Number of memory writes
system.mem_ctrls12.memWaitCycles                 7158                       # Delay stalled at the head of the bank queue
system.mem_ctrls12.totalStalls                   7158                       # Total number of stall cycles
system.mem_ctrls12.stallsPerReq                     1                       # Expected number of stall cycles per request
system.mem_ctrls12.memBankCount          |           0      0.00%      0.00% |           0      0.00%      0.00% |           0      0.00%      0.00% |        2173     30.36%     30.36% |           0      0.00%     30.36% |           0      0.00%     30.36% |           0      0.00%     30.36% |           0      0.00%     30.36% |           0      0.00%     30.36% |           0      0.00%     30.36% |           0      0.00%     30.36% |        1062     14.84%     45.19% |           0      0.00%     45.19% |           0      0.00%     45.19% |           0      0.00%     45.19% |           0      0.00%     45.19% |           0      0.00%     45.19% |           0      0.00%     45.19% |           0      0.00%     45.19% |         755     10.55%     55.74% |           0      0.00%     55.74% |           0      0.00%     55.74% |           0      0.00%     55.74% |           0      0.00%     55.74% |           0      0.00%     55.74% |           0      0.00%     55.74% |           0      0.00%     55.74% |        3168     44.26%    100.00% |           0      0.00%    100.00% |           0      0.00%    100.00% |           0      0.00%    100.00% |           0      0.00%    100.00% # Number of accesses per bank
system.mem_ctrls12.memBankCount::total           7158                       # Number of accesses per bank
system.mem_ctrls13.pwrStateResidencyTicks::UNDEFINED  84468774684                       # Cumulative time (in ticks) in various power states
system.mem_ctrls13.bytes_written::ruby.dir_cntrl13       819648                       # Number of bytes written to this memory
system.mem_ctrls13.bytes_written::total        819648                       # Number of bytes written to this memory
system.mem_ctrls13.num_writes::ruby.dir_cntrl13        12807                       # Number of write requests responded to by this memory
system.mem_ctrls13.num_writes::total            12807                       # Number of write requests responded to by this memory
system.mem_ctrls13.bw_write::ruby.dir_cntrl13      9703562                       # Write bandwidth from this memory (bytes/s)
system.mem_ctrls13.bw_write::total            9703562                       # Write bandwidth from this memory (bytes/s)
system.mem_ctrls13.bw_total::ruby.dir_cntrl13      9703562                       # Total bandwidth to/from this memory (bytes/s)
system.mem_ctrls13.bw_total::total            9703562                       # Total bandwidth to/from this memory (bytes/s)
system.mem_ctrls13.memReq                       12807                       # Total number of memory requests
system.mem_ctrls13.memWrite                     12807                       # Number of memory writes
system.mem_ctrls13.memWaitCycles                12807                       # Delay stalled at the head of the bank queue
system.mem_ctrls13.totalStalls                  12807                       # Total number of stall cycles
system.mem_ctrls13.stallsPerReq                     1                       # Expected number of stall cycles per request
system.mem_ctrls13.memBankCount          |           0      0.00%      0.00% |           0      0.00%      0.00% |           0      0.00%      0.00% |        1926     15.04%     15.04% |           0      0.00%     15.04% |           0      0.00%     15.04% |           0      0.00%     15.04% |           0      0.00%     15.04% |           0      0.00%     15.04% |           0      0.00%     15.04% |           0      0.00%     15.04% |         516      4.03%     19.07% |           0      0.00%     19.07% |           0      0.00%     19.07% |           0      0.00%     19.07% |           0      0.00%     19.07% |           0      0.00%     19.07% |           0      0.00%     19.07% |           0      0.00%     19.07% |        7464     58.28%     77.35% |           0      0.00%     77.35% |           0      0.00%     77.35% |           0      0.00%     77.35% |           0      0.00%     77.35% |           0      0.00%     77.35% |           0      0.00%     77.35% |           0      0.00%     77.35% |        2901     22.65%    100.00% |           0      0.00%    100.00% |           0      0.00%    100.00% |           0      0.00%    100.00% |           0      0.00%    100.00% # Number of accesses per bank
system.mem_ctrls13.memBankCount::total          12807                       # Number of accesses per bank
system.mem_ctrls14.pwrStateResidencyTicks::UNDEFINED  84468774684                       # Cumulative time (in ticks) in various power states
system.mem_ctrls14.bytes_written::ruby.dir_cntrl14       986944                       # Number of bytes written to this memory
system.mem_ctrls14.bytes_written::total        986944                       # Number of bytes written to this memory
system.mem_ctrls14.num_writes::ruby.dir_cntrl14        15421                       # Number of write requests responded to by this memory
system.mem_ctrls14.num_writes::total            15421                       # Number of write requests responded to by this memory
system.mem_ctrls14.bw_write::ruby.dir_cntrl14     11684128                       # Write bandwidth from this memory (bytes/s)
system.mem_ctrls14.bw_write::total           11684128                       # Write bandwidth from this memory (bytes/s)
system.mem_ctrls14.bw_total::ruby.dir_cntrl14     11684128                       # Total bandwidth to/from this memory (bytes/s)
system.mem_ctrls14.bw_total::total           11684128                       # Total bandwidth to/from this memory (bytes/s)
system.mem_ctrls14.memReq                       15421                       # Total number of memory requests
system.mem_ctrls14.memWrite                     15421                       # Number of memory writes
system.mem_ctrls14.memWaitCycles                15421                       # Delay stalled at the head of the bank queue
system.mem_ctrls14.totalStalls                  15421                       # Total number of stall cycles
system.mem_ctrls14.stallsPerReq                     1                       # Expected number of stall cycles per request
system.mem_ctrls14.memBankCount          |           0      0.00%      0.00% |           0      0.00%      0.00% |           0      0.00%      0.00% |        2342     15.19%     15.19% |           0      0.00%     15.19% |           0      0.00%     15.19% |           0      0.00%     15.19% |           0      0.00%     15.19% |           0      0.00%     15.19% |           0      0.00%     15.19% |           0      0.00%     15.19% |        7722     50.07%     65.26% |           0      0.00%     65.26% |           0      0.00%     65.26% |           0      0.00%     65.26% |           0      0.00%     65.26% |           0      0.00%     65.26% |           0      0.00%     65.26% |           0      0.00%     65.26% |        2858     18.53%     83.79% |           0      0.00%     83.79% |           0      0.00%     83.79% |           0      0.00%     83.79% |           0      0.00%     83.79% |           0      0.00%     83.79% |           0      0.00%     83.79% |           0      0.00%     83.79% |        2499     16.21%    100.00% |           0      0.00%    100.00% |           0      0.00%    100.00% |           0      0.00%    100.00% |           0      0.00%    100.00% # Number of accesses per bank
system.mem_ctrls14.memBankCount::total          15421                       # Number of accesses per bank
system.mem_ctrls15.pwrStateResidencyTicks::UNDEFINED  84468774684                       # Cumulative time (in ticks) in various power states
system.mem_ctrls15.bytes_read::ruby.dir_cntrl15      2817984                       # Number of bytes read from this memory
system.mem_ctrls15.bytes_read::total          2817984                       # Number of bytes read from this memory
system.mem_ctrls15.bytes_written::ruby.dir_cntrl15       795456                       # Number of bytes written to this memory
system.mem_ctrls15.bytes_written::total        795456                       # Number of bytes written to this memory
system.mem_ctrls15.num_reads::ruby.dir_cntrl15        44031                       # Number of read requests responded to by this memory
system.mem_ctrls15.num_reads::total             44031                       # Number of read requests responded to by this memory
system.mem_ctrls15.num_writes::ruby.dir_cntrl15        12429                       # Number of write requests responded to by this memory
system.mem_ctrls15.num_writes::total            12429                       # Number of write requests responded to by this memory
system.mem_ctrls15.bw_read::ruby.dir_cntrl15     33361251                       # Total read bandwidth from this memory (bytes/s)
system.mem_ctrls15.bw_read::total            33361251                       # Total read bandwidth from this memory (bytes/s)
system.mem_ctrls15.bw_write::ruby.dir_cntrl15      9417160                       # Write bandwidth from this memory (bytes/s)
system.mem_ctrls15.bw_write::total            9417160                       # Write bandwidth from this memory (bytes/s)
system.mem_ctrls15.bw_total::ruby.dir_cntrl15     42778411                       # Total bandwidth to/from this memory (bytes/s)
system.mem_ctrls15.bw_total::total           42778411                       # Total bandwidth to/from this memory (bytes/s)
system.mem_ctrls15.memReq                       56460                       # Total number of memory requests
system.mem_ctrls15.memRead                      44031                       # Number of memory reads
system.mem_ctrls15.memWrite                     12429                       # Number of memory writes
system.mem_ctrls15.memWaitCycles                56460                       # Delay stalled at the head of the bank queue
system.mem_ctrls15.totalStalls                  56460                       # Total number of stall cycles
system.mem_ctrls15.stallsPerReq                     1                       # Expected number of stall cycles per request
system.mem_ctrls15.memBankCount          |           0      0.00%      0.00% |           0      0.00%      0.00% |           0      0.00%      0.00% |        7885     13.97%     13.97% |           0      0.00%     13.97% |           0      0.00%     13.97% |           0      0.00%     13.97% |           0      0.00%     13.97% |           0      0.00%     13.97% |           0      0.00%     13.97% |           0      0.00%     13.97% |       20828     36.89%     50.86% |           0      0.00%     50.86% |           0      0.00%     50.86% |           0      0.00%     50.86% |           0      0.00%     50.86% |           0      0.00%     50.86% |           0      0.00%     50.86% |           0      0.00%     50.86% |       15362     27.21%     78.06% |           0      0.00%     78.06% |           0      0.00%     78.06% |           0      0.00%     78.06% |           0      0.00%     78.06% |           0      0.00%     78.06% |           0      0.00%     78.06% |           0      0.00%     78.06% |       12385     21.94%    100.00% |           0      0.00%    100.00% |           0      0.00%    100.00% |           0      0.00%    100.00% |           0      0.00%    100.00% # Number of accesses per bank
system.mem_ctrls15.memBankCount::total          56460                       # Number of accesses per bank
system.mem_ctrls16.pwrStateResidencyTicks::UNDEFINED  84468774684                       # Cumulative time (in ticks) in various power states
system.mem_ctrls16.bytes_read::ruby.dir_cntrl16      2598656                       # Number of bytes read from this memory
system.mem_ctrls16.bytes_read::total          2598656                       # Number of bytes read from this memory
system.mem_ctrls16.bytes_written::ruby.dir_cntrl16       964224                       # Number of bytes written to this memory
system.mem_ctrls16.bytes_written::total        964224                       # Number of bytes written to this memory
system.mem_ctrls16.num_reads::ruby.dir_cntrl16        40604                       # Number of read requests responded to by this memory
system.mem_ctrls16.num_reads::total             40604                       # Number of read requests responded to by this memory
system.mem_ctrls16.num_writes::ruby.dir_cntrl16        15066                       # Number of write requests responded to by this memory
system.mem_ctrls16.num_writes::total            15066                       # Number of write requests responded to by this memory
system.mem_ctrls16.bw_read::ruby.dir_cntrl16     30764694                       # Total read bandwidth from this memory (bytes/s)
system.mem_ctrls16.bw_read::total            30764694                       # Total read bandwidth from this memory (bytes/s)
system.mem_ctrls16.bw_write::ruby.dir_cntrl16     11415153                       # Write bandwidth from this memory (bytes/s)
system.mem_ctrls16.bw_write::total           11415153                       # Write bandwidth from this memory (bytes/s)
system.mem_ctrls16.bw_total::ruby.dir_cntrl16     42179847                       # Total bandwidth to/from this memory (bytes/s)
system.mem_ctrls16.bw_total::total           42179847                       # Total bandwidth to/from this memory (bytes/s)
system.mem_ctrls16.memReq                       55670                       # Total number of memory requests
system.mem_ctrls16.memRead                      40604                       # Number of memory reads
system.mem_ctrls16.memWrite                     15066                       # Number of memory writes
system.mem_ctrls16.memWaitCycles                55670                       # Delay stalled at the head of the bank queue
system.mem_ctrls16.totalStalls                  55670                       # Total number of stall cycles
system.mem_ctrls16.stallsPerReq                     1                       # Expected number of stall cycles per request
system.mem_ctrls16.memBankCount          |           0      0.00%      0.00% |           0      0.00%      0.00% |           0      0.00%      0.00% |           0      0.00%      0.00% |        9371     16.83%     16.83% |           0      0.00%     16.83% |           0      0.00%     16.83% |           0      0.00%     16.83% |           0      0.00%     16.83% |           0      0.00%     16.83% |           0      0.00%     16.83% |           0      0.00%     16.83% |       14639     26.30%     43.13% |           0      0.00%     43.13% |           0      0.00%     43.13% |           0      0.00%     43.13% |           0      0.00%     43.13% |           0      0.00%     43.13% |           0      0.00%     43.13% |           0      0.00%     43.13% |       18350     32.96%     76.09% |           0      0.00%     76.09% |           0      0.00%     76.09% |           0      0.00%     76.09% |           0      0.00%     76.09% |           0      0.00%     76.09% |           0      0.00%     76.09% |           0      0.00%     76.09% |       13310     23.91%    100.00% |           0      0.00%    100.00% |           0      0.00%    100.00% |           0      0.00%    100.00% # Number of accesses per bank
system.mem_ctrls16.memBankCount::total          55670                       # Number of accesses per bank
system.mem_ctrls17.pwrStateResidencyTicks::UNDEFINED  84468774684                       # Cumulative time (in ticks) in various power states
system.mem_ctrls17.bytes_written::ruby.dir_cntrl17       425856                       # Number of bytes written to this memory
system.mem_ctrls17.bytes_written::total        425856                       # Number of bytes written to this memory
system.mem_ctrls17.num_writes::ruby.dir_cntrl17         6654                       # Number of write requests responded to by this memory
system.mem_ctrls17.num_writes::total             6654                       # Number of write requests responded to by this memory
system.mem_ctrls17.bw_write::ruby.dir_cntrl17      5041579                       # Write bandwidth from this memory (bytes/s)
system.mem_ctrls17.bw_write::total            5041579                       # Write bandwidth from this memory (bytes/s)
system.mem_ctrls17.bw_total::ruby.dir_cntrl17      5041579                       # Total bandwidth to/from this memory (bytes/s)
system.mem_ctrls17.bw_total::total            5041579                       # Total bandwidth to/from this memory (bytes/s)
system.mem_ctrls17.memReq                        6654                       # Total number of memory requests
system.mem_ctrls17.memWrite                      6654                       # Number of memory writes
system.mem_ctrls17.memWaitCycles                 6654                       # Delay stalled at the head of the bank queue
system.mem_ctrls17.totalStalls                   6654                       # Total number of stall cycles
system.mem_ctrls17.stallsPerReq                     1                       # Expected number of stall cycles per request
system.mem_ctrls17.memBankCount          |           0      0.00%      0.00% |           0      0.00%      0.00% |           0      0.00%      0.00% |           0      0.00%      0.00% |         864     12.98%     12.98% |           0      0.00%     12.98% |           0      0.00%     12.98% |           0      0.00%     12.98% |           0      0.00%     12.98% |           0      0.00%     12.98% |           0      0.00%     12.98% |           0      0.00%     12.98% |         913     13.72%     26.71% |           0      0.00%     26.71% |           0      0.00%     26.71% |           0      0.00%     26.71% |           0      0.00%     26.71% |           0      0.00%     26.71% |           0      0.00%     26.71% |           0      0.00%     26.71% |        2092     31.44%     58.15% |           0      0.00%     58.15% |           0      0.00%     58.15% |           0      0.00%     58.15% |           0      0.00%     58.15% |           0      0.00%     58.15% |           0      0.00%     58.15% |           0      0.00%     58.15% |        2785     41.85%    100.00% |           0      0.00%    100.00% |           0      0.00%    100.00% |           0      0.00%    100.00% # Number of accesses per bank
system.mem_ctrls17.memBankCount::total           6654                       # Number of accesses per bank
system.mem_ctrls18.pwrStateResidencyTicks::UNDEFINED  84468774684                       # Cumulative time (in ticks) in various power states
system.mem_ctrls18.bytes_written::ruby.dir_cntrl18       866112                       # Number of bytes written to this memory
system.mem_ctrls18.bytes_written::total        866112                       # Number of bytes written to this memory
system.mem_ctrls18.num_writes::ruby.dir_cntrl18        13533                       # Number of write requests responded to by this memory
system.mem_ctrls18.num_writes::total            13533                       # Number of write requests responded to by this memory
system.mem_ctrls18.bw_write::ruby.dir_cntrl18     10253635                       # Write bandwidth from this memory (bytes/s)
system.mem_ctrls18.bw_write::total           10253635                       # Write bandwidth from this memory (bytes/s)
system.mem_ctrls18.bw_total::ruby.dir_cntrl18     10253635                       # Total bandwidth to/from this memory (bytes/s)
system.mem_ctrls18.bw_total::total           10253635                       # Total bandwidth to/from this memory (bytes/s)
system.mem_ctrls18.memReq                       13533                       # Total number of memory requests
system.mem_ctrls18.memWrite                     13533                       # Number of memory writes
system.mem_ctrls18.memWaitCycles                13533                       # Delay stalled at the head of the bank queue
system.mem_ctrls18.totalStalls                  13533                       # Total number of stall cycles
system.mem_ctrls18.stallsPerReq                     1                       # Expected number of stall cycles per request
system.mem_ctrls18.memBankCount          |           0      0.00%      0.00% |           0      0.00%      0.00% |           0      0.00%      0.00% |           0      0.00%      0.00% |        1363     10.07%     10.07% |           0      0.00%     10.07% |           0      0.00%     10.07% |           0      0.00%     10.07% |           0      0.00%     10.07% |           0      0.00%     10.07% |           0      0.00%     10.07% |           0      0.00%     10.07% |        6735     49.77%     59.84% |           0      0.00%     59.84% |           0      0.00%     59.84% |           0      0.00%     59.84% |           0      0.00%     59.84% |           0      0.00%     59.84% |           0      0.00%     59.84% |           0      0.00%     59.84% |        1767     13.06%     72.90% |           0      0.00%     72.90% |           0      0.00%     72.90% |           0      0.00%     72.90% |           0      0.00%     72.90% |           0      0.00%     72.90% |           0      0.00%     72.90% |           0      0.00%     72.90% |        3668     27.10%    100.00% |           0      0.00%    100.00% |           0      0.00%    100.00% |           0      0.00%    100.00% # Number of accesses per bank
system.mem_ctrls18.memBankCount::total          13533                       # Number of accesses per bank
system.mem_ctrls19.pwrStateResidencyTicks::UNDEFINED  84468774684                       # Cumulative time (in ticks) in various power states
system.mem_ctrls19.bytes_written::ruby.dir_cntrl19       570816                       # Number of bytes written to this memory
system.mem_ctrls19.bytes_written::total        570816                       # Number of bytes written to this memory
system.mem_ctrls19.num_writes::ruby.dir_cntrl19         8919                       # Number of write requests responded to by this memory
system.mem_ctrls19.num_writes::total             8919                       # Number of write requests responded to by this memory
system.mem_ctrls19.bw_write::ruby.dir_cntrl19      6757716                       # Write bandwidth from this memory (bytes/s)
system.mem_ctrls19.bw_write::total            6757716                       # Write bandwidth from this memory (bytes/s)
system.mem_ctrls19.bw_total::ruby.dir_cntrl19      6757716                       # Total bandwidth to/from this memory (bytes/s)
system.mem_ctrls19.bw_total::total            6757716                       # Total bandwidth to/from this memory (bytes/s)
system.mem_ctrls19.memReq                        8919                       # Total number of memory requests
system.mem_ctrls19.memWrite                      8919                       # Number of memory writes
system.mem_ctrls19.memWaitCycles                 8919                       # Delay stalled at the head of the bank queue
system.mem_ctrls19.totalStalls                   8919                       # Total number of stall cycles
system.mem_ctrls19.stallsPerReq                     1                       # Expected number of stall cycles per request
system.mem_ctrls19.memBankCount          |           0      0.00%      0.00% |           0      0.00%      0.00% |           0      0.00%      0.00% |           0      0.00%      0.00% |        2120     23.77%     23.77% |           0      0.00%     23.77% |           0      0.00%     23.77% |           0      0.00%     23.77% |           0      0.00%     23.77% |           0      0.00%     23.77% |           0      0.00%     23.77% |           0      0.00%     23.77% |        2005     22.48%     46.25% |           0      0.00%     46.25% |           0      0.00%     46.25% |           0      0.00%     46.25% |           0      0.00%     46.25% |           0      0.00%     46.25% |           0      0.00%     46.25% |           0      0.00%     46.25% |        2025     22.70%     68.95% |           0      0.00%     68.95% |           0      0.00%     68.95% |           0      0.00%     68.95% |           0      0.00%     68.95% |           0      0.00%     68.95% |           0      0.00%     68.95% |           0      0.00%     68.95% |        2769     31.05%    100.00% |           0      0.00%    100.00% |           0      0.00%    100.00% |           0      0.00%    100.00% # Number of accesses per bank
system.mem_ctrls19.memBankCount::total           8919                       # Number of accesses per bank
system.mem_ctrls20.pwrStateResidencyTicks::UNDEFINED  84468774684                       # Cumulative time (in ticks) in various power states
system.mem_ctrls20.bytes_written::ruby.dir_cntrl20       803328                       # Number of bytes written to this memory
system.mem_ctrls20.bytes_written::total        803328                       # Number of bytes written to this memory
system.mem_ctrls20.num_writes::ruby.dir_cntrl20        12552                       # Number of write requests responded to by this memory
system.mem_ctrls20.num_writes::total            12552                       # Number of write requests responded to by this memory
system.mem_ctrls20.bw_write::ruby.dir_cntrl20      9510355                       # Write bandwidth from this memory (bytes/s)
system.mem_ctrls20.bw_write::total            9510355                       # Write bandwidth from this memory (bytes/s)
system.mem_ctrls20.bw_total::ruby.dir_cntrl20      9510355                       # Total bandwidth to/from this memory (bytes/s)
system.mem_ctrls20.bw_total::total            9510355                       # Total bandwidth to/from this memory (bytes/s)
system.mem_ctrls20.memReq                       12552                       # Total number of memory requests
system.mem_ctrls20.memWrite                     12552                       # Number of memory writes
system.mem_ctrls20.memWaitCycles                12552                       # Delay stalled at the head of the bank queue
system.mem_ctrls20.totalStalls                  12552                       # Total number of stall cycles
system.mem_ctrls20.stallsPerReq                     1                       # Expected number of stall cycles per request
system.mem_ctrls20.memBankCount          |           0      0.00%      0.00% |           0      0.00%      0.00% |           0      0.00%      0.00% |           0      0.00%      0.00% |           0      0.00%      0.00% |        1631     12.99%     12.99% |           0      0.00%     12.99% |           0      0.00%     12.99% |           0      0.00%     12.99% |           0      0.00%     12.99% |           0      0.00%     12.99% |           0      0.00%     12.99% |           0      0.00%     12.99% |        5906     47.05%     60.05% |           0      0.00%     60.05% |           0      0.00%     60.05% |           0      0.00%     60.05% |           0      0.00%     60.05% |           0      0.00%     60.05% |           0      0.00%     60.05% |           0      0.00%     60.05% |        1731     13.79%     73.84% |           0      0.00%     73.84% |           0      0.00%     73.84% |           0      0.00%     73.84% |           0      0.00%     73.84% |           0      0.00%     73.84% |           0      0.00%     73.84% |           0      0.00%     73.84% |        3284     26.16%    100.00% |           0      0.00%    100.00% |           0      0.00%    100.00% # Number of accesses per bank
system.mem_ctrls20.memBankCount::total          12552                       # Number of accesses per bank
system.mem_ctrls21.pwrStateResidencyTicks::UNDEFINED  84468774684                       # Cumulative time (in ticks) in various power states
system.mem_ctrls21.bytes_written::ruby.dir_cntrl21       670976                       # Number of bytes written to this memory
system.mem_ctrls21.bytes_written::total        670976                       # Number of bytes written to this memory
system.mem_ctrls21.num_writes::ruby.dir_cntrl21        10484                       # Number of write requests responded to by this memory
system.mem_ctrls21.num_writes::total            10484                       # Number of write requests responded to by this memory
system.mem_ctrls21.bw_write::ruby.dir_cntrl21      7943480                       # Write bandwidth from this memory (bytes/s)
system.mem_ctrls21.bw_write::total            7943480                       # Write bandwidth from this memory (bytes/s)
system.mem_ctrls21.bw_total::ruby.dir_cntrl21      7943480                       # Total bandwidth to/from this memory (bytes/s)
system.mem_ctrls21.bw_total::total            7943480                       # Total bandwidth to/from this memory (bytes/s)
system.mem_ctrls21.memReq                       10484                       # Total number of memory requests
system.mem_ctrls21.memWrite                     10484                       # Number of memory writes
system.mem_ctrls21.memWaitCycles                10484                       # Delay stalled at the head of the bank queue
system.mem_ctrls21.totalStalls                  10484                       # Total number of stall cycles
system.mem_ctrls21.stallsPerReq                     1                       # Expected number of stall cycles per request
system.mem_ctrls21.memBankCount          |           0      0.00%      0.00% |           0      0.00%      0.00% |           0      0.00%      0.00% |           0      0.00%      0.00% |           0      0.00%      0.00% |         929      8.86%      8.86% |           0      0.00%      8.86% |           0      0.00%      8.86% |           0      0.00%      8.86% |           0      0.00%      8.86% |           0      0.00%      8.86% |           0      0.00%      8.86% |           0      0.00%      8.86% |        4369     41.67%     50.53% |           0      0.00%     50.53% |           0      0.00%     50.53% |           0      0.00%     50.53% |           0      0.00%     50.53% |           0      0.00%     50.53% |           0      0.00%     50.53% |           0      0.00%     50.53% |        2067     19.72%     70.25% |           0      0.00%     70.25% |           0      0.00%     70.25% |           0      0.00%     70.25% |           0      0.00%     70.25% |           0      0.00%     70.25% |           0      0.00%     70.25% |           0      0.00%     70.25% |        3119     29.75%    100.00% |           0      0.00%    100.00% |           0      0.00%    100.00% # Number of accesses per bank
system.mem_ctrls21.memBankCount::total          10484                       # Number of accesses per bank
system.mem_ctrls22.pwrStateResidencyTicks::UNDEFINED  84468774684                       # Cumulative time (in ticks) in various power states
system.mem_ctrls22.bytes_written::ruby.dir_cntrl22      1120512                       # Number of bytes written to this memory
system.mem_ctrls22.bytes_written::total       1120512                       # Number of bytes written to this memory
system.mem_ctrls22.num_writes::ruby.dir_cntrl22        17508                       # Number of write requests responded to by this memory
system.mem_ctrls22.num_writes::total            17508                       # Number of write requests responded to by this memory
system.mem_ctrls22.bw_write::ruby.dir_cntrl22     13265399                       # Write bandwidth from this memory (bytes/s)
system.mem_ctrls22.bw_write::total           13265399                       # Write bandwidth from this memory (bytes/s)
system.mem_ctrls22.bw_total::ruby.dir_cntrl22     13265399                       # Total bandwidth to/from this memory (bytes/s)
system.mem_ctrls22.bw_total::total           13265399                       # Total bandwidth to/from this memory (bytes/s)
system.mem_ctrls22.memReq                       17508                       # Total number of memory requests
system.mem_ctrls22.memWrite                     17508                       # Number of memory writes
system.mem_ctrls22.memWaitCycles                17508                       # Delay stalled at the head of the bank queue
system.mem_ctrls22.totalStalls                  17508                       # Total number of stall cycles
system.mem_ctrls22.stallsPerReq                     1                       # Expected number of stall cycles per request
system.mem_ctrls22.memBankCount          |           0      0.00%      0.00% |           0      0.00%      0.00% |           0      0.00%      0.00% |           0      0.00%      0.00% |           0      0.00%      0.00% |        1291      7.37%      7.37% |           0      0.00%      7.37% |           0      0.00%      7.37% |           0      0.00%      7.37% |           0      0.00%      7.37% |           0      0.00%      7.37% |           0      0.00%      7.37% |           0      0.00%      7.37% |        2099     11.99%     19.36% |           0      0.00%     19.36% |           0      0.00%     19.36% |           0      0.00%     19.36% |           0      0.00%     19.36% |           0      0.00%     19.36% |           0      0.00%     19.36% |           0      0.00%     19.36% |         940      5.37%     24.73% |           0      0.00%     24.73% |           0      0.00%     24.73% |           0      0.00%     24.73% |           0      0.00%     24.73% |           0      0.00%     24.73% |           0      0.00%     24.73% |           0      0.00%     24.73% |       13178     75.27%    100.00% |           0      0.00%    100.00% |           0      0.00%    100.00% # Number of accesses per bank
system.mem_ctrls22.memBankCount::total          17508                       # Number of accesses per bank
system.mem_ctrls23.pwrStateResidencyTicks::UNDEFINED  84468774684                       # Cumulative time (in ticks) in various power states
system.mem_ctrls23.bytes_read::ruby.dir_cntrl23      3119424                       # Number of bytes read from this memory
system.mem_ctrls23.bytes_read::total          3119424                       # Number of bytes read from this memory
system.mem_ctrls23.bytes_written::ruby.dir_cntrl23       733056                       # Number of bytes written to this memory
system.mem_ctrls23.bytes_written::total        733056                       # Number of bytes written to this memory
system.mem_ctrls23.num_reads::ruby.dir_cntrl23        48741                       # Number of read requests responded to by this memory
system.mem_ctrls23.num_reads::total             48741                       # Number of read requests responded to by this memory
system.mem_ctrls23.num_writes::ruby.dir_cntrl23        11454                       # Number of write requests responded to by this memory
system.mem_ctrls23.num_writes::total            11454                       # Number of write requests responded to by this memory
system.mem_ctrls23.bw_read::ruby.dir_cntrl23     36929907                       # Total read bandwidth from this memory (bytes/s)
system.mem_ctrls23.bw_read::total            36929907                       # Total read bandwidth from this memory (bytes/s)
system.mem_ctrls23.bw_write::ruby.dir_cntrl23      8678426                       # Write bandwidth from this memory (bytes/s)
system.mem_ctrls23.bw_write::total            8678426                       # Write bandwidth from this memory (bytes/s)
system.mem_ctrls23.bw_total::ruby.dir_cntrl23     45608333                       # Total bandwidth to/from this memory (bytes/s)
system.mem_ctrls23.bw_total::total           45608333                       # Total bandwidth to/from this memory (bytes/s)
system.mem_ctrls23.memReq                       60195                       # Total number of memory requests
system.mem_ctrls23.memRead                      48741                       # Number of memory reads
system.mem_ctrls23.memWrite                     11454                       # Number of memory writes
system.mem_ctrls23.memWaitCycles                60195                       # Delay stalled at the head of the bank queue
system.mem_ctrls23.totalStalls                  60195                       # Total number of stall cycles
system.mem_ctrls23.stallsPerReq                     1                       # Expected number of stall cycles per request
[...]
system.ruby.L1Cache_Controller.Load::total      2826227                      
system.ruby.L1Cache_Controller.Ifetch    |    27115078    100.00%    100.00% |           0      0.00%    100.00% |           0      0.00%    100.00% |           0      0.00%    100.00% |           0      0.00%    100.00% |           0      0.00%    100.00% |           0      0.00%    100.00% |           0      0.00%    100.00% |           0      0.00%    100.00% |           0      0.00%    100.00% |           0      0.00%    100.00% |           0      0.00%    100.00% |           0      0.00%    100.00% |           0      0.00%    100.00% |           0      0.00%    100.00% |           0      0.00%    100.00% |           0      0.00%    100.00% |           0      0.00%    100.00% |           0      0.00%    100.00% |           0      0.00%    100.00% |           0      0.00%    100.00% |           0      0.00%    100.00% |           0      0.00%    100.00% |           0      0.00%    100.00% |           0      0.00%    100.00% |           0      0.00%    100.00% |           0      0.00%    100.00% |           0      0.00%    100.00% |           0      0.00%    100.00% |           0      0.00%    100.00% |           0      0.00%    100.00% |           0      0.00%    100.00%
system.ruby.L1Cache_Controller.Ifetch::total     27115078                      
system.ruby.L1Cache_Controller.Store     |      638180    100.00%    100.00% |           0      0.00%    100.00% |           0      0.00%    100.00% |           0      0.00%    100.00% |           0      0.00%    100.00% |           0      0.00%    100.00% |           0      0.00%    100.00% |           0      0.00%    100.00% |           0      0.00%    100.00% |           0      0.00%    100.00% |           0      0.00%    100.00% |           0      0.00%    100.00% |           0      0.00%    100.00% |           0      0.00%    100.00% |           0      0.00%    100.00% |           0      0.00%    100.00% |           0      0.00%    100.00% |           0      0.00%    100.00% |           0      0.00%    100.00% |           0      0.00%    100.00% |           0      0.00%    100.00% |           0      0.00%    100.00% |           0      0.00%    100.00% |           0      0.00%    100.00% |           0      0.00%    100.00% |           0      0.00%    100.00% |           0      0.00%    100.00% |           0      0.00%    100.00% |           0      0.00%    100.00% |           0      0.00%    100.00% |           0      0.00%    100.00% |           0      0.00%    100.00%
system.ruby.L1Cache_Controller.Store::total       638180                      
system.ruby.L1Cache_Controller.Data      |      447195    100.00%    100.00% |           0      0.00%    100.00% |           0      0.00%    100.00% |           0      0.00%    100.00% |           0      0.00%    100.00% |           0      0.00%    100.00% |           0      0.00%    100.00% |           0      0.00%    100.00% |           0      0.00%    100.00% |           0      0.00%    100.00% |           0      0.00%    100.00% |           0      0.00%    100.00% |           0      0.00%    100.00% |           0      0.00%    100.00% |           0      0.00%    100.00% |           0      0.00%    100.00% |           0      0.00%    100.00% |           0      0.00%    100.00% |           0      0.00%    100.00% |           0      0.00%    100.00% |           0      0.00%    100.00% |           0      0.00%    100.00% |           0      0.00%    100.00% |           0      0.00%    100.00% |           0      0.00%    100.00% |           0      0.00%    100.00% |           0      0.00%    100.00% |           0      0.00%    100.00% |           0      0.00%    100.00% |           0      0.00%    100.00% |           0      0.00%    100.00% |           0      0.00%    100.00%
system.ruby.L1Cache_Controller.Data::total       447195                      
system.ruby.L1Cache_Controller.Replacement |      447067    100.00%    100.00% |           0      0.00%    100.00% |           0      0.00%    100.00% |           0      0.00%    100.00% |           0      0.00%    100.00% |           0      0.00%    100.00% |           0      0.00%    100.00% |           0      0.00%    100.00% |           0      0.00%    100.00% |           0      0.00%    100.00% |           0      0.00%    100.00% |           0      0.00%    100.00% |           0      0.00%    100.00% |           0      0.00%    100.00% |           0      0.00%    100.00% |           0      0.00%    100.00% |           0      0.00%    100.00% |           0      0.00%    100.00% |           0      0.00%    100.00% |           0      0.00%    100.00% |           0      0.00%    100.00% |           0      0.00%    100.00% |           0      0.00%    100.00% |           0      0.00%    100.00% |           0      0.00%    100.00% |           0      0.00%    100.00% |           0      0.00%    100.00% |           0      0.00%    100.00% |           0      0.00%    100.00% |           0      0.00%    100.00% |           0      0.00%    100.00% |           0      0.00%    100.00%
system.ruby.L1Cache_Controller.Replacement::total       447067                      
system.ruby.L1Cache_Controller.Writeback_Ack |      447067    100.00%    100.00% |           0      0.00%    100.00% |           0      0.00%    100.00% |           0      0.00%    100.00% |           0      0.00%    100.00% |           0      0.00%    100.00% |           0      0.00%    100.00% |           0      0.00%    100.00% |           0      0.00%    100.00% |           0      0.00%    100.00% |           0      0.00%    100.00% |           0      0.00%    100.00% |           0      0.00%    100.00% |           0      0.00%    100.00% |           0      0.00%    100.00% |           0      0.00%    100.00% |           0      0.00%    100.00% |           0      0.00%    100.00% |           0      0.00%    100.00% |           0      0.00%    100.00% |           0      0.00%    100.00% |           0      0.00%    100.00% |           0      0.00%    100.00% |           0      0.00%    100.00% |           0      0.00%    100.00% |           0      0.00%    100.00% |           0      0.00%    100.00% |           0      0.00%    100.00% |           0      0.00%    100.00% |           0      0.00%    100.00% |           0      0.00%    100.00% |           0      0.00%    100.00%
system.ruby.L1Cache_Controller.Writeback_Ack::total       447067                      
system.ruby.L1Cache_Controller.I.Load    |      303313    100.00%    100.00% |           0      0.00%    100.00% |           0      0.00%    100.00% |           0      0.00%    100.00% |           0      0.00%    100.00% |           0      0.00%    100.00% |           0      0.00%    100.00% |           0      0.00%    100.00% |           0      0.00%    100.00% |           0      0.00%    100.00% |           0      0.00%    100.00% |           0      0.00%    100.00% |           0      0.00%    100.00% |           0      0.00%    100.00% |           0      0.00%    100.00% |           0      0.00%    100.00% |           0      0.00%    100.00% |           0      0.00%    100.00% |           0      0.00%    100.00% |           0      0.00%    100.00% |           0      0.00%    100.00% |           0      0.00%    100.00% |           0      0.00%    100.00% |           0      0.00%    100.00% |           0      0.00%    100.00% |           0      0.00%    100.00% |           0      0.00%    100.00% |           0      0.00%    100.00% |           0      0.00%    100.00% |           0      0.00%    100.00% |           0      0.00%    100.00% |           0      0.00%    100.00%
system.ruby.L1Cache_Controller.I.Load::total       303313                      
system.ruby.L1Cache_Controller.I.Ifetch  |      112750    100.00%    100.00% |           0      0.00%    100.00% |           0      0.00%    100.00% |           0      0.00%    100.00% |           0      0.00%    100.00% |           0      0.00%    100.00% |           0      0.00%    100.00% |           0      0.00%    100.00% |           0      0.00%    100.00% |           0      0.00%    100.00% |           0      0.00%    100.00% |           0      0.00%    100.00% |           0      0.00%    100.00% |           0      0.00%    100.00% |           0      0.00%    100.00% |           0      0.00%    100.00% |           0      0.00%    100.00% |           0      0.00%    100.00% |           0      0.00%    100.00% |           0      0.00%    100.00% |           0      0.00%    100.00% |           0      0.00%    100.00% |           0      0.00%    100.00% |           0      0.00%    100.00% |           0      0.00%    100.00% |           0      0.00%    100.00% |           0      0.00%    100.00% |           0      0.00%    100.00% |           0      0.00%    100.00% |           0      0.00%    100.00% |           0      0.00%    100.00% |           0      0.00%    100.00%
system.ruby.L1Cache_Controller.I.Ifetch::total       112750                      
system.ruby.L1Cache_Controller.I.Store   |       31132    100.00%    100.00% |           0      0.00%    100.00% |           0      0.00%    100.00% |           0      0.00%    100.00% |           0      0.00%    100.00% |           0      0.00%    100.00% |           0      0.00%    100.00% |           0      0.00%    100.00% |           0      0.00%    100.00% |           0      0.00%    100.00% |           0      0.00%    100.00% |           0      0.00%    100.00% |           0      0.00%    100.00% |           0      0.00%    100.00% |           0      0.00%    100.00% |           0      0.00%    100.00% |           0      0.00%    100.00% |           0      0.00%    100.00% |           0      0.00%    100.00% |           0      0.00%    100.00% |           0      0.00%    100.00% |           0      0.00%    100.00% |           0      0.00%    100.00% |           0      0.00%    100.00% |           0      0.00%    100.00% |           0      0.00%    100.00% |           0      0.00%    100.00% |           0      0.00%    100.00% |           0      0.00%    100.00% |           0      0.00%    100.00% |           0      0.00%    100.00% |           0      0.00%    100.00%
system.ruby.L1Cache_Controller.I.Store::total        31132                      
system.ruby.L1Cache_Controller.M.Load    |     2522914    100.00%    100.00% |           0      0.00%    100.00% |           0      0.00%    100.00% |           0      0.00%    100.00% |           0      0.00%    100.00% |           0      0.00%    100.00% |           0      0.00%    100.00% |           0      0.00%    100.00% |           0      0.00%    100.00% |           0      0.00%    100.00% |           0      0.00%    100.00% |           0      0.00%    100.00% |           0      0.00%    100.00% |           0      0.00%    100.00% |           0      0.00%    100.00% |           0      0.00%    100.00% |           0      0.00%    100.00% |           0      0.00%    100.00% |           0      0.00%    100.00% |           0      0.00%    100.00% |           0      0.00%    100.00% |           0      0.00%    100.00% |           0      0.00%    100.00% |           0      0.00%    100.00% |           0      0.00%    100.00% |           0      0.00%    100.00% |           0      0.00%    100.00% |           0      0.00%    100.00% |           0      0.00%    100.00% |           0      0.00%    100.00% |           0      0.00%    100.00% |           0      0.00%    100.00%
system.ruby.L1Cache_Controller.M.Load::total      2522914                      
system.ruby.L1Cache_Controller.M.Ifetch  |    27002328    100.00%    100.00% |           0      0.00%    100.00% |           0      0.00%    100.00% |           0      0.00%    100.00% |           0      0.00%    100.00% |           0      0.00%    100.00% |           0      0.00%    100.00% |           0      0.00%    100.00% |           0      0.00%    100.00% |           0      0.00%    100.00% |           0      0.00%    100.00% |           0      0.00%    100.00% |           0      0.00%    100.00% |           0      0.00%    100.00% |           0      0.00%    100.00% |           0      0.00%    100.00% |           0      0.00%    100.00% |           0      0.00%    100.00% |           0      0.00%    100.00% |           0      0.00%    100.00% |           0      0.00%    100.00% |           0      0.00%    100.00% |           0      0.00%    100.00% |           0      0.00%    100.00% |           0      0.00%    100.00% |           0      0.00%    100.00% |           0      0.00%    100.00% |           0      0.00%    100.00% |           0      0.00%    100.00% |           0      0.00%    100.00% |           0      0.00%    100.00% |           0      0.00%    100.00%
system.ruby.L1Cache_Controller.M.Ifetch::total     27002328                      
system.ruby.L1Cache_Controller.M.Store   |      607048    100.00%    100.00% |           0      0.00%    100.00% |           0      0.00%    100.00% |           0      0.00%    100.00% |           0      0.00%    100.00% |           0      0.00%    100.00% |           0      0.00%    100.00% |           0      0.00%    100.00% |           0      0.00%    100.00% |           0      0.00%    100.00% |           0      0.00%    100.00% |           0      0.00%    100.00% |           0      0.00%    100.00% |           0      0.00%    100.00% |           0      0.00%    100.00% |           0      0.00%    100.00% |           0      0.00%    100.00% |           0      0.00%    100.00% |           0      0.00%    100.00% |           0      0.00%    100.00% |           0      0.00%    100.00% |           0      0.00%    100.00% |           0      0.00%    100.00% |           0      0.00%    100.00% |           0      0.00%    100.00% |           0      0.00%    100.00% |           0      0.00%    100.00% |           0      0.00%    100.00% |           0      0.00%    100.00% |           0      0.00%    100.00% |           0      0.00%    100.00% |           0      0.00%    100.00%
system.ruby.L1Cache_Controller.M.Store::total       607048                      
system.ruby.L1Cache_Controller.M.Replacement |      447067    100.00%    100.00% |           0      0.00%    100.00% |           0      0.00%    100.00% |           0      0.00%    100.00% |           0      0.00%    100.00% |           0      0.00%    100.00% |           0      0.00%    100.00% |           0      0.00%    100.00% |           0      0.00%    100.00% |           0      0.00%    100.00% |           0      0.00%    100.00% |           0      0.00%    100.00% |           0      0.00%    100.00% |           0      0.00%    100.00% |           0      0.00%    100.00% |           0      0.00%    100.00% |           0      0.00%    100.00% |           0      0.00%    100.00% |           0      0.00%    100.00% |           0      0.00%    100.00% |           0      0.00%    100.00% |           0      0.00%    100.00% |           0      0.00%    100.00% |           0      0.00%    100.00% |           0      0.00%    100.00% |           0      0.00%    100.00% |           0      0.00%    100.00% |           0      0.00%    100.00% |           0      0.00%    100.00% |           0      0.00%    100.00% |           0      0.00%    100.00% |           0      0.00%    100.00%
system.ruby.L1Cache_Controller.M.Replacement::total       447067                      
system.ruby.L1Cache_Controller.MI.Writeback_Ack |      447067    100.00%    100.00% |           0      0.00%    100.00% |           0      0.00%    100.00% |           0      0.00%    100.00% |           0      0.00%    100.00% |           0      0.00%    100.00% |           0      0.00%    100.00% |           0      0.00%    100.00% |           0      0.00%    100.00% |           0      0.00%    100.00% |           0      0.00%    100.00% |           0      0.00%    100.00% |           0      0.00%    100.00% |           0      0.00%    100.00% |           0      0.00%    100.00% |           0      0.00%    100.00% |           0      0.00%    100.00% |           0      0.00%    100.00% |           0      0.00%    100.00% |           0      0.00%    100.00% |           0      0.00%    100.00% |           0      0.00%    100.00% |           0      0.00%    100.00% |           0      0.00%    100.00% |           0      0.00%    100.00% |           0      0.00%    100.00% |           0      0.00%    100.00% |           0      0.00%    100.00% |           0      0.00%    100.00% |           0      0.00%    100.00% |           0      0.00%    100.00% |           0      0.00%    100.00%
system.ruby.L1Cache_Controller.MI.Writeback_Ack::total       447067                      
system.ruby.L1Cache_Controller.IS.Data   |      416063    100.00%    100.00% |           0      0.00%    100.00% |           0      0.00%    100.00% |           0      0.00%    100.00% |           0      0.00%    100.00% |           0      0.00%    100.00% |           0      0.00%    100.00% |           0      0.00%    100.00% |           0      0.00%    100.00% |           0      0.00%    100.00% |           0      0.00%    100.00% |           0      0.00%    100.00% |           0      0.00%    100.00% |           0      0.00%    100.00% |           0      0.00%    100.00% |           0      0.00%    100.00% |           0      0.00%    100.00% |           0      0.00%    100.00% |           0      0.00%    100.00% |           0      0.00%    100.00% |           0      0.00%    100.00% |           0      0.00%    100.00% |           0      0.00%    100.00% |           0      0.00%    100.00% |           0      0.00%    100.00% |           0      0.00%    100.00% |           0      0.00%    100.00% |           0      0.00%    100.00% |           0      0.00%    100.00% |           0      0.00%    100.00% |           0      0.00%    100.00% |           0      0.00%    100.00%
system.ruby.L1Cache_Controller.IS.Data::total       416063                      
system.ruby.L1Cache_Controller.IM.Data   |       31132    100.00%    100.00% |           0      0.00%    100.00% |           0      0.00%    100.00% |           0      0.00%    100.00% |           0      0.00%    100.00% |           0      0.00%    100.00% |           0      0.00%    100.00% |           0      0.00%    100.00% |           0      0.00%    100.00% |           0      0.00%    100.00% |           0      0.00%    100.00% |           0      0.00%    100.00% |           0      0.00%    100.00% |           0      0.00%    100.00% |           0      0.00%    100.00% |           0      0.00%    100.00% |           0      0.00%    100.00% |           0      0.00%    100.00% |           0      0.00%    100.00% |           0      0.00%    100.00% |           0      0.00%    100.00% |           0      0.00%    100.00% |           0      0.00%    100.00% |           0      0.00%    100.00% |           0      0.00%    100.00% |           0      0.00%    100.00% |           0      0.00%    100.00% |           0      0.00%    100.00% |           0      0.00%    100.00% |           0      0.00%    100.00% |           0      0.00%    100.00% |           0      0.00%    100.00%
system.ruby.L1Cache_Controller.IM.Data::total        31132                      

---------- End Simulation Statistics   ----------
