
---------- Begin Simulation Statistics ----------
l2_hits                                       1154860                       # Number of l2 cache hits
l2_misses                                      319299                       # Number of l2 cache misses
l2_accesses                                   1474159                       # Number of l2 cache accesses
sim_seconds                                  0.254449                       # Number of seconds simulated
sim_ticks                                254449273134                       # Number of ticks simulated
final_tick                               254449273134                       # Number of ticks from beginning of simulation (restored from checkpoints and never reset)
sim_freq                                 1000000000000                       # Frequency of simulated ticks
host_inst_rate                                  33695                       # Simulator instruction rate (inst/s)
host_op_rate                                    50681                       # Simulator op (including micro ops) rate (op/s)
host_tick_rate                              205254445                       # Simulator tick rate (ticks/s)
host_mem_usage                                4964232                       # Number of bytes of host memory used
host_seconds                                  1239.68                       # Real time elapsed on the host
sim_insts                                    41771236                       # Number of instructions simulated
sim_ops                                      62827561                       # Number of ops (including micro ops) simulated
system.voltage_domain.voltage                       1                       # Voltage in Volts
system.clk_domain.clock                          1000                       # Clock period in ticks
system.mem_ctrls00.pwrStateResidencyTicks::UNDEFINED 254449273134                       # Cumulative time (in ticks) in various power states
system.mem_ctrls00.bytes_read::ruby.dir_cntrl0     37458688                       # Number of bytes read from this memory
system.mem_ctrls00.bytes_read::total         37458688                       # Number of bytes read from this memory
system.mem_ctrls00.bytes_written::ruby.dir_cntrl0      2031360                       # Number of bytes written to this memory
system.mem_ctrls00.bytes_written::total       2031360                       # Number of bytes written to this memory
system.mem_ctrls00.num_reads::ruby.dir_cntrl0       585292                       # Number of read requests responded to by this memory
system.mem_ctrls00.num_reads::total            585292                       # Number of read requests responded to by this memory
system.mem_ctrls00.num_writes::ruby.dir_cntrl0        31740                       # Number of write requests responded to by this memory
system.mem_ctrls00.num_writes::total            31740                       # Number of write requests responded to by this memory
system.mem_ctrls00.bw_read::ruby.dir_cntrl0    147214757                       # Total read bandwidth from this memory (bytes/s)
system.mem_ctrls00.bw_read::total           147214757                       # Total read bandwidth from this memory (bytes/s)
system.mem_ctrls00.bw_write::ruby.dir_cntrl0      7983359                       # Write bandwidth from this memory (bytes/s)
system.mem_ctrls00.bw_write::total            7983359                       # Write bandwidth from this memory (bytes/s)
system.mem_ctrls00.bw_total::ruby.dir_cntrl0    155198117                       # Total bandwidth to/from this memory (bytes/s)
system.mem_ctrls00.bw_total::total          155198117                       # Total bandwidth to/from this memory (bytes/s)
system.mem_ctrls00.memReq                      617032                       # Total number of memory requests
system.mem_ctrls00.memRead                     585292                       # Number of memory reads
system.mem_ctrls00.memWrite                     31740                       # Number of memory writes
system.mem_ctrls00.memWaitCycles               617032                       # Delay stalled at the head of the bank queue
system.mem_ctrls00.totalStalls                 617032                       # Total number of stall cycles
system.mem_ctrls00.stallsPerReq                     1                       # Expected number of stall cycles per request
system.mem_ctrls00.memBankCount          |      554581     89.88%     89.88% |           0      0.00%     89.88% |           0      0.00%     89.88% |           0      0.00%     89.88% |           0      0.00%     89.88% |           0      0.00%     89.88% |           0      0.00%     89.88% |           0      0.00%     89.88% |       26572      4.31%     94.19% |           0      0.00%     94.19% |           0      0.00%     94.19% |           0      0.00%     94.19% |           0      0.00%     94.19% |           0      0.00%     94.19% |           0      0.00%     94.19% |           0      0.00%     94.19% |       17590      2.85%     97.04% |           0      0.00%     97.04% |           0      0.00%     97.04% |           0      0.00%     97.04% |           0      0.00%     97.04% |           0      0.00%     97.04% |           0      0.00%     97.04% |           0      0.00%     97.04% |       18289      2.96%    100.00% |           0      0.00%    100.00% |           0      0.00%    100.00% |           0      0.00%    100.00% |           0      0.00%    100.00% |           0      0.00%    100.00% |           0      0.00%    100.00% |           0      0.00%    100.00% # Number of accesses per bank
system.mem_ctrls00.memBankCount::total         617032                       # Number of accesses per bank
system.mem_ctrls01.pwrStateResidencyTicks::UNDEFINED 254449273134                       # Cumulative time (in ticks) in various power states
system.mem_ctrls01.bytes_written::ruby.dir_cntrl1     35436416                       # Number of bytes written to this memory
system.mem_ctrls01.bytes_written::total      35436416                       # Number of bytes written to this memory
system.mem_ctrls01.num_writes::ruby.dir_cntrl1       553694                       # Number of write requests responded to by this memory
system.mem_ctrls01.num_writes::total           553694                       # Number of write requests responded to by this memory
system.mem_ctrls01.bw_write::ruby.dir_cntrl1    139267114                       # Write bandwidth from this memory (bytes/s)
system.mem_ctrls01.bw_write::total          139267114                       # Write bandwidth from this memory (bytes/s)
system.mem_ctrls01.bw_total::ruby.dir_cntrl1    139267114                       # Total bandwidth to/from this memory (bytes/s)
system.mem_ctrls01.bw_total::total          139267114                       # Total bandwidth to/from this memory (bytes/s)
system.mem_ctrls01.memReq                      553694                       # Total number of memory requests
system.mem_ctrls01.memWrite                    553694                       # Number of memory writes
system.mem_ctrls01.memWaitCycles               553694                       # Delay stalled at the head of the bank queue
system.mem_ctrls01.totalStalls                 553694                       # Total number of stall cycles
system.mem_ctrls01.stallsPerReq                     1                       # Expected number of stall cycles per request
system.mem_ctrls01.memBankCount          |      532300     96.14%     96.14% |           0      0.00%     96.14% |           0      0.00%     96.14% |           0      0.00%     96.14% |           0      0.00%     96.14% |           0      0.00%     96.14% |           0      0.00%     96.14% |           0      0.00%     96.14% |        8648      1.56%     97.70% |           0      0.00%     97.70% |           0      0.00%     97.70% |           0      0.00%     97.70% |           0      0.00%     97.70% |           0      0.00%     97.70% |           0      0.00%     97.70% |           0      0.00%     97.70% |        6174      1.12%     98.81% |           0      0.00%     98.81% |           0      0.00%     98.81% |           0      0.00%     98.81% |           0      0.00%     98.81% |           0      0.00%     98.81% |           0      0.00%     98.81% |           0      0.00%     98.81% |        6572      1.19%    100.00% |           0      0.00%    100.00% |           0      0.00%    100.00% |           0      0.00%    100.00% |           0      0.00%    100.00% |           0      0.00%    100.00% |           0      0.00%    100.00% |           0      0.00%    100.00% # Number of accesses per bank
system.mem_ctrls01.memBankCount::total         553694                       # Number of accesses per bank
system.mem_ctrls02.pwrStateResidencyTicks::UNDEFINED 254449273134                       # Cumulative time (in ticks) in various power states
system.mem_ctrls02.bytes_written::ruby.dir_cntrl2      2021184                       # Number of bytes written to this memory
system.mem_ctrls02.bytes_written::total       2021184                       # Number of bytes written to this memory
system.mem_ctrls02.num_writes::ruby.dir_cntrl2        31581                       # Number of write requests responded to by this memory
system.mem_ctrls02.num_writes::total            31581                       # Number of write requests responded to by this memory
system.mem_ctrls02.bw_write::ruby.dir_cntrl2      7943367                       # Write bandwidth from this memory (bytes/s)
system.mem_ctrls02.bw_write::total            7943367                       # Write bandwidth from this memory (bytes/s)
system.mem_ctrls02.bw_total::ruby.dir_cntrl2      7943367                       # Total bandwidth to/from this memory (bytes/s)
system.mem_ctrls02.bw_total::total            7943367                       # Total bandwidth to/from this memory (bytes/s)
system.mem_ctrls02.memReq                       31581                       # Total number of memory requests
system.mem_ctrls02.memWrite                     31581                       # Number of memory writes
system.mem_ctrls02.memWaitCycles                31581                       # Delay stalled at the head of the bank queue
system.mem_ctrls02.totalStalls                  31581                       # Total number of stall cycles
system.mem_ctrls02.stallsPerReq                     1                       # Expected number of stall cycles per request
system.mem_ctrls02.memBankCount          |       10177     32.23%     32.23% |           0      0.00%     32.23% |           0      0.00%     32.23% |           0      0.00%     32.23% |           0      0.00%     32.23% |           0      0.00%     32.23% |           0      0.00%     32.23% |           0      0.00%     32.23% |        8687     27.51%     59.73% |           0      0.00%     59.73% |           0      0.00%     59.73% |           0      0.00%     59.73% |           0      0.00%     59.73% |           0      0.00%     59.73% |           0      0.00%     59.73% |           0      0.00%     59.73% |        6168     19.53%     79.26% |           0      0.00%     79.26% |           0      0.00%     79.26% |           0      0.00%     79.26% |           0      0.00%     79.26% |           0      0.00%     79.26% |           0      0.00%     79.26% |           0      0.00%     79.26% |        6549     20.74%    100.00% |           0      0.00%    100.00% |           0      0.00%    100.00% |           0      0.00%    100.00% |           0      0.00%    100.00% |           0      0.00%    100.00% |           0      0.00%    100.00% |           0      0.00%    100.00% # Number of accesses per bank
system.mem_ctrls02.memBankCount::total          31581                       # Number of accesses per bank
system.mem_ctrls03.pwrStateResidencyTicks::UNDEFINED 254449273134                       # Cumulative time (in ticks) in various power states
system.mem_ctrls03.bytes_read::ruby.dir_cntrl3     12237760                       # Number of bytes read from this memory
system.mem_ctrls03.bytes_read::total         12237760                       # Number of bytes read from this memory
system.mem_ctrls03.bytes_written::ruby.dir_cntrl3      2003520                       # Number of bytes written to this memory
system.mem_ctrls03.bytes_written::total       2003520                       # Number of bytes written to this memory
system.mem_ctrls03.num_reads::ruby.dir_cntrl3       191215                       # Number of read requests responded to by this memory
system.mem_ctrls03.num_reads::total            191215                       # Number of read requests responded to by this memory
system.mem_ctrls03.num_writes::ruby.dir_cntrl3        31305                       # Number of write requests responded to by this memory
system.mem_ctrls03.num_writes::total            31305                       # Number of write requests responded to by this memory
system.mem_ctrls03.bw_read::ruby.dir_cntrl3     48095087                       # Total read bandwidth from this memory (bytes/s)
system.mem_ctrls03.bw_read::total            48095087                       # Total read bandwidth from this memory (bytes/s)
system.mem_ctrls03.bw_write::ruby.dir_cntrl3      7873947                       # Write bandwidth from this memory (bytes/s)
system.mem_ctrls03.bw_write::total            7873947                       # Write bandwidth from this memory (bytes/s)
system.mem_ctrls03.bw_total::ruby.dir_cntrl3     55969034                       # Total bandwidth to/from this memory (bytes/s)
system.mem_ctrls03.bw_total::total           55969034                       # Total bandwidth to/from this memory (bytes/s)
system.mem_ctrls03.memReq                      222520                       # Total number of memory requests
system.mem_ctrls03.memRead                     191215                       # Number of memory reads
system.mem_ctrls03.memWrite                     31305                       # Number of memory writes
system.mem_ctrls03.memWaitCycles               222520                       # Delay stalled at the head of the bank queue
system.mem_ctrls03.totalStalls                 222520                       # Total number of stall cycles
system.mem_ctrls03.stallsPerReq                     1                       # Expected number of stall cycles per request
system.mem_ctrls03.memBankCount          |       27968     12.57%     12.57% |       10792      4.85%     17.42% |       10763      4.84%     22.26% |       10809      4.86%     27.11% |           0      0.00%     27.11% |           0      0.00%     27.11% |           0      0.00%     27.11% |           0      0.00%     27.11% |       25155     11.30%     38.42% |       10687      4.80%     43.22% |       11347      5.10%     48.32% |       10480      4.71%     53.03% |           0      0.00%     53.03% |           0      0.00%     53.03% |           0      0.00%     53.03% |           0      0.00%     53.03% |       20292      9.12%     62.15% |       10597      4.76%     66.91% |       10624      4.77%     71.69% |       10658      4.79%     76.47% |           0      0.00%     76.47% |           0      0.00%     76.47% |           0      0.00%     76.47% |           0      0.00%     76.47% |       20934      9.41%     85.88% |       10452      4.70%     90.58% |       10404      4.68%     95.26% |       10558      4.74%    100.00% |           0      0.00%    100.00% |           0      0.00%    100.00% |           0      0.00%    100.00% |           0      0.00%    100.00% # Number of accesses per bank
system.mem_ctrls03.memBankCount::total         222520                       # Number of accesses per bank
system.mem_ctrls04.pwrStateResidencyTicks::UNDEFINED 254449273134                       # Cumulative time (in ticks) in various power states
system.mem_ctrls04.bytes_written::ruby.dir_cntrl4      2007168                       # Number of bytes written to this memory
system.mem_ctrls04.bytes_written::total       2007168                       # Number of bytes written to this memory
system.mem_ctrls04.num_writes::ruby.dir_cntrl4        31362                       # Number of write requests responded to by this memory
system.mem_ctrls04.num_writes::total            31362                       # Number of write requests responded to by this memory
system.mem_ctrls04.bw_write::ruby.dir_cntrl4      7888283                       # Write bandwidth from this memory (bytes/s)
system.mem_ctrls04.bw_write::total            7888283                       # Write bandwidth from this memory (bytes/s)
system.mem_ctrls04.bw_total::ruby.dir_cntrl4      7888283                       # Total bandwidth to/from this memory (bytes/s)
system.mem_ctrls04.bw_total::total            7888283                       # Total bandwidth to/from this memory (bytes/s)
system.mem_ctrls04.memReq                       31362                       # Total number of memory requests
system.mem_ctrls04.memWrite                     31362                       # Number of memory writes
system.mem_ctrls04.memWaitCycles                31362                       # Delay stalled at the head of the bank queue
system.mem_ctrls04.totalStalls                  31362                       # Total number of stall cycles
system.mem_ctrls04.stallsPerReq                     1                       # Expected number of stall cycles per request
system.mem_ctrls04.memBankCount          |           0      0.00%      0.00% |       10096     32.19%     32.19% |           0      0.00%     32.19% |           0      0.00%     32.19% |           0      0.00%     32.19% |           0      0.00%     32.19% |           0      0.00%     32.19% |           0      0.00%     32.19% |           0      0.00%     32.19% |        8545     27.25%     59.44% |           0      0.00%     59.44% |           0      0.00%     59.44% |           0      0.00%     59.44% |           0      0.00%     59.44% |           0      0.00%     59.44% |           0      0.00%     59.44% |           0      0.00%     59.44% |        6171     19.68%     79.11% |           0      0.00%     79.11% |           0      0.00%     79.11% |           0      0.00%     79.11% |           0      0.00%     79.11% |           0      0.00%     79.11% |           0      0.00%     79.11% |           0      0.00%     79.11% |        6550     20.89%    100.00% |           0      0.00%    100.00% |           0      0.00%    100.00% |           0      0.00%    100.00% |           0      0.00%    100.00% |           0      0.00%    100.00% |           0      0.00%    100.00% # Number of accesses per bank
system.mem_ctrls04.memBankCount::total          31362                       # Number of accesses per bank
system.mem_ctrls05.pwrStateResidencyTicks::UNDEFINED 254449273134                       # Cumulative time (in ticks) in various power states
system.mem_ctrls05.bytes_written::ruby.dir_cntrl5      2019072                       # Number of bytes written to this memory
system.mem_ctrls05.bytes_written::total       2019072                       # Number of bytes written to this memory
system.mem_ctrls05.num_writes::ruby.dir_cntrl5        31548                       # Number of write requests responded to by this memory
system.mem_ctrls05.num_writes::total            31548                       # Number of write requests responded to by this memory
system.mem_ctrls05.bw_write::ruby.dir_cntrl5      7935067                       # Write bandwidth from this memory (bytes/s)
system.mem_ctrls05.bw_write::total            7935067                       # Write bandwidth from this memory (bytes/s)
system.mem_ctrls05.bw_total::ruby.dir_cntrl5      7935067                       # Total bandwidth to/from this memory (bytes/s)
system.mem_ctrls05.bw_total::total            7935067                       # Total bandwidth to/from this memory (bytes/s)
system.mem_ctrls05.memReq                       31548                       # Total number of memory requests
system.mem_ctrls05.memWrite                     31548                       # Number of memory writes
system.mem_ctrls05.memWaitCycles                31548                       # Delay stalled at the head of the bank queue
system.mem_ctrls05.totalStalls                  31548                       # Total number of stall cycles
system.mem_ctrls05.stallsPerReq                     1                       # Expected number of stall cycles per request
system.mem_ctrls05.memBankCount          |           0      0.00%      0.00% |       10164     32.22%     32.22% |           0      0.00%     32.22% |           0      0.00%     32.22% |           0      0.00%     32.22% |           0      0.00%     32.22% |           0      0.00%     32.22% |           0      0.00%     32.22% |           0      0.00%     32.22% |        8562     27.14%     59.36% |           0      0.00%     59.36% |           0      0.00%     59.36% |           0      0.00%     59.36% |           0      0.00%     59.36% |           0      0.00%     59.36% |           0      0.00%     59.36% |           0      0.00%     59.36% |        6225     19.73%     79.09% |           0      0.00%     79.09% |           0      0.00%     79.09% |           0      0.00%     79.09% |           0      0.00%     79.09% |           0      0.00%     79.09% |           0      0.00%     79.09% |           0      0.00%     79.09% |        6597     20.91%    100.00% |           0      0.00%    100.00% |           0      0.00%    100.00% |           0      0.00%    100.00% |           0      0.00%    100.00% |           0      0.00%    100.00% |           0      0.00%    100.00% # Number of accesses per bank
system.mem_ctrls05.memBankCount::total          31548                       # Number of accesses per bank
system.mem_ctrls06.pwrStateResidencyTicks::UNDEFINED 254449273134                       # Cumulative time (in ticks) in various power states
system.mem_ctrls06.bytes_written::ruby.dir_cntrl6      2018304                       # Number of bytes written to this memory
system.mem_ctrls06.bytes_written::total       2018304                       # Number of bytes written to this memory
system.mem_ctrls06.num_writes::ruby.dir_cntrl6        31536                       # Number of write requests responded to by this memory
system.mem_ctrls06.num_writes::total            31536                       # Number of write requests responded to by this memory
system.mem_ctrls06.bw_write::ruby.dir_cntrl6      7932049                       # Write bandwidth from this memory (bytes/s)
system.mem_ctrls06.bw_write::total            7932049                       # Write bandwidth from this memory (bytes/s)
system.mem_ctrls06.bw_total::ruby.dir_cntrl6      7932049                       # Total bandwidth to/from this memory (bytes/s)
system.mem_ctrls06.bw_total::total            7932049                       # Total bandwidth to/from this memory (bytes/s)
system.mem_ctrls06.memReq                       31536                       # Total number of memory requests
system.mem_ctrls06.memWrite                     31536                       # Number of memory writes
system.mem_ctrls06.memWaitCycles                31536                       # Delay stalled at the head of the bank queue
system.mem_ctrls06.totalStalls                  31536                       # Total number of stall cycles
system.mem_ctrls06.stallsPerReq                     1                       # Expected number of stall cycles per request
system.mem_ctrls06.memBankCount          |           0      0.00%      0.00% |       10225     32.42%     32.42% |           0      0.00%     32.42% |           0      0.00%     32.42% |           0      0.00%     32.42% |           0      0.00%     32.42% |           0      0.00%     32.42% |           0      0.00%     32.42% |           0      0.00%     32.42% |        8581     27.21%     59.63% |           0      0.00%     59.63% |           0      0.00%     59.63% |           0      0.00%     59.63% |           0      0.00%     59.63% |           0      0.00%     59.63% |           0      0.00%     59.63% |           0      0.00%     59.63% |        6260     19.85%     79.48% |           0      0.00%     79.48% |           0      0.00%     79.48% |           0      0.00%     79.48% |           0      0.00%     79.48% |           0      0.00%     79.48% |           0      0.00%     79.48% |           0      0.00%     79.48% |        6470     20.52%    100.00% |           0      0.00%    100.00% |           0      0.00%    100.00% |           0      0.00%    100.00% |           0      0.00%    100.00% |           0      0.00%    100.00% |           0      0.00%    100.00% # Number of accesses per bank
system.mem_ctrls06.memBankCount::total          31536                       # Number of accesses per bank
system.mem_ctrls07.pwrStateResidencyTicks::UNDEFINED 254449273134                       # Cumulative time (in ticks) in various power states
system.mem_ctrls07.bytes_read::ruby.dir_cntrl7      5346880                       # Number of bytes read from this memory
system.mem_ctrls07.bytes_read::total          5346880                       # Number of bytes read from this memory
system.mem_ctrls07.bytes_written::ruby.dir_cntrl7      2023104                       # Number of bytes written to this memory
system.mem_ctrls07.bytes_written::total       2023104                       # Number of bytes written to this memory
system.mem_ctrls07.num_reads::ruby.dir_cntrl7        83545                       # Number of read requests responded to by this memory
system.mem_ctrls07.num_reads::total             83545                       # Number of read requests responded to by this memory
system.mem_ctrls07.num_writes::ruby.dir_cntrl7        31611                       # Number of write requests responded to by this memory
system.mem_ctrls07.num_writes::total            31611                       # Number of write requests responded to by this memory
system.mem_ctrls07.bw_read::ruby.dir_cntrl7     21013540                       # Total read bandwidth from this memory (bytes/s)
system.mem_ctrls07.bw_read::total            21013540                       # Total read bandwidth from this memory (bytes/s)
system.mem_ctrls07.bw_write::ruby.dir_cntrl7      7950913                       # Write bandwidth from this memory (bytes/s)
system.mem_ctrls07.bw_write::total            7950913                       # Write bandwidth from this memory (bytes/s)
system.mem_ctrls07.bw_total::ruby.dir_cntrl7     28964453                       # Total bandwidth to/from this memory (bytes/s)
system.mem_ctrls07.bw_total::total           28964453                       # Total bandwidth to/from this memory (bytes/s)
system.mem_ctrls07.memReq                      115156                       # Total number of memory requests
system.mem_ctrls07.memRead                      83545                       # Number of memory reads
system.mem_ctrls07.memWrite                     31611                       # Number of memory writes
system.mem_ctrls07.memWaitCycles               115156                       # Delay stalled at the head of the bank queue
system.mem_ctrls07.totalStalls                 115156                       # Total number of stall cycles
system.mem_ctrls07.stallsPerReq                     1                       # Expected number of stall cycles per request
system.mem_ctrls07.memBankCount          |           0      0.00%      0.00% |       40267     34.97%     34.97% |           0      0.00%     34.97% |           0      0.00%     34.97% |           0      0.00%     34.97% |           0      0.00%     34.97% |           0      0.00%     34.97% |           0      0.00%     34.97% |           0      0.00%     34.97% |       31867     27.67%     62.64% |           0      0.00%     62.64% |           0      0.00%     62.64% |           0      0.00%     62.64% |           0      0.00%     62.64% |           0      0.00%     62.64% |           0      0.00%     62.64% |           0      0.00%     62.64% |       20721     17.99%     80.63% |           0      0.00%     80.63% |           0      0.00%     80.63% |           0      0.00%     80.63% |           0      0.00%     80.63% |           0      0.00%     80.63% |           0      0.00%     80.63% |           0      0.00%     80.63% |       22301     19.37%    100.00% |           0      0.00%    100.00% |           0      0.00%    100.00% |           0      0.00%    100.00% |           0      0.00%    100.00% |           0      0.00%    100.00% |           0      0.00%    100.00% # Number of accesses per bank
system.mem_ctrls07.memBankCount::total         115156                       # Number of accesses per bank
system.mem_ctrls08.pwrStateResidencyTicks::UNDEFINED 254449273134                       # Cumulative time (in ticks) in various power states
system.mem_ctrls08.bytes_read::ruby.dir_cntrl8      9322880                       # Number of bytes read from this memory
system.mem_ctrls08.bytes_read::total          9322880                       # Number of bytes read from this memory
system.mem_ctrls08.bytes_written::ruby.dir_cntrl8      2025088                       # Number of bytes written to this memory
system.mem_ctrls08.bytes_written::total       2025088                       # Number of bytes written to this memory
system.mem_ctrls08.num_reads::ruby.dir_cntrl8       145670                       # Number of read requests responded to by this memory
system.mem_ctrls08.num_reads::total            145670                       # Number of read requests responded to by this memory
system.mem_ctrls08.num_writes::ruby.dir_cntrl8        31642                       # Number of write requests responded to by this memory
system.mem_ctrls08.num_writes::total            31642                       # Number of write requests responded to by this memory
system.mem_ctrls08.bw_read::ruby.dir_cntrl8     36639444                       # Total read bandwidth from this memory (bytes/s)
system.mem_ctrls08.bw_read::total            36639444                       # Total read bandwidth from this memory (bytes/s)
system.mem_ctrls08.bw_write::ruby.dir_cntrl8      7958710                       # Write bandwidth from this memory (bytes/s)
system.mem_ctrls08.bw_write::total            7958710                       # Write bandwidth from this memory (bytes/s)
system.mem_ctrls08.bw_total::ruby.dir_cntrl8     44598155                       # Total bandwidth to/from this memory (bytes/s)
system.mem_ctrls08.bw_total::total           44598155                       # Total bandwidth to/from this memory (bytes/s)
system.mem_ctrls08.memReq                      177312                       # Total number of memory requests
system.mem_ctrls08.memRead                     145670                       # Number of memory reads
system.mem_ctrls08.memWrite                     31642                       # Number of memory writes
system.mem_ctrls08.memWaitCycles               177312                       # Delay stalled at the head of the bank queue
system.mem_ctrls08.totalStalls                 177312                       # Total number of stall cycles
system.mem_ctrls08.stallsPerReq                     1                       # Expected number of stall cycles per request
system.mem_ctrls08.memBankCount          |           0      0.00%      0.00% |           0      0.00%      0.00% |       34289     19.34%     19.34% |           0      0.00%     19.34% |           0      0.00%     19.34% |           0      0.00%     19.34% |           0      0.00%     19.34% |           0      0.00%     19.34% |           0      0.00%     19.34% |           0      0.00%     19.34% |       99403     56.06%     75.40% |           0      0.00%     75.40% |           0      0.00%     75.40% |           0      0.00%     75.40% |           0      0.00%     75.40% |           0      0.00%     75.40% |           0      0.00%     75.40% |           0      0.00%     75.40% |       21356     12.04%     87.44% |           0      0.00%     87.44% |           0      0.00%     87.44% |           0      0.00%     87.44% |           0      0.00%     87.44% |           0      0.00%     87.44% |           0      0.00%     87.44% |           0      0.00%     87.44% |       22264     12.56%    100.00% |           0      0.00%    100.00% |           0      0.00%    100.00% |           0      0.00%    100.00% |           0      0.00%    100.00% |           0      0.00%    100.00% # Number of accesses per bank
system.mem_ctrls08.memBankCount::total         177312                       # Number of accesses per bank
system.mem_ctrls09.pwrStateResidencyTicks::UNDEFINED 254449273134                       # Cumulative time (in ticks) in various power states
system.mem_ctrls09.bytes_written::ruby.dir_cntrl9      3760192                       # Number of bytes written to this memory
system.mem_ctrls09.bytes_written::total       3760192                       # Number of bytes written to this memory
system.mem_ctrls09.num_writes::ruby.dir_cntrl9        58753                       # Number of write requests responded to by this memory
system.mem_ctrls09.num_writes::total            58753                       # Number of write requests responded to by this memory
system.mem_ctrls09.bw_write::ruby.dir_cntrl9     14777767                       # Write bandwidth from this memory (bytes/s)
system.mem_ctrls09.bw_write::total           14777767                       # Write bandwidth from this memory (bytes/s)
system.mem_ctrls09.bw_total::ruby.dir_cntrl9     14777767                       # Total bandwidth to/from this memory (bytes/s)
system.mem_ctrls09.bw_total::total           14777767                       # Total bandwidth to/from this memory (bytes/s)
system.mem_ctrls09.memReq                       58753                       # Total number of memory requests
system.mem_ctrls09.memWrite                     58753                       # Number of memory writes
system.mem_ctrls09.memWaitCycles                58753                       # Delay stalled at the head of the bank queue
system.mem_ctrls09.totalStalls                  58753                       # Total number of stall cycles
system.mem_ctrls09.stallsPerReq                     1                       # Expected number of stall cycles per request
system.mem_ctrls09.memBankCount          |           0      0.00%      0.00% |           0      0.00%      0.00% |       10595     18.03%     18.03% |           0      0.00%     18.03% |           0      0.00%     18.03% |           0      0.00%     18.03% |           0      0.00%     18.03% |           0      0.00%     18.03% |           0      0.00%     18.03% |           0      0.00%     18.03% |       35114     59.77%     77.80% |           0      0.00%     77.80% |           0      0.00%     77.80% |           0      0.00%     77.80% |           0      0.00%     77.80% |           0      0.00%     77.80% |           0      0.00%     77.80% |           0      0.00%     77.80% |        6437     10.96%     88.75% |           0      0.00%     88.75% |           0      0.00%     88.75% |           0      0.00%     88.75% |           0      0.00%     88.75% |           0      0.00%     88.75% |           0      0.00%     88.75% |           0      0.00%     88.75% |        6607     11.25%    100.00% |           0      0.00%    100.00% |           0      0.00%    100.00% |           0      0.00%    100.00% |           0      0.00%    100.00% |           0      0.00%    100.00% # Number of accesses per bank
system.mem_ctrls09.memBankCount::total          58753                       # Number of accesses per bank
system.mem_ctrls10.pwrStateResidencyTicks::UNDEFINED 254449273134                       # Cumulative time (in ticks) in various power states
system.mem_ctrls10.bytes_written::ruby.dir_cntrl10      4500288                       # Number of bytes written to this memory
system.mem_ctrls10.bytes_written::total       4500288                       # Number of bytes written to this memory
system.mem_ctrls10.num_writes::ruby.dir_cntrl10        70317                       # Number of write requests responded to by this memory
system.mem_ctrls10.num_writes::total            70317                       # Number of write requests responded to by this memory
system.mem_ctrls10.bw_write::ruby.dir_cntrl10     17686386                       # Write bandwidth from this memory (bytes/s)
system.mem_ctrls10.bw_write::total           17686386                       # Write bandwidth from this memory (bytes/s)
system.mem_ctrls10.bw_total::ruby.dir_cntrl10     17686386                       # Total bandwidth to/from this memory (bytes/s)
system.mem_ctrls10.bw_total::total           17686386                       # Total bandwidth to/from this memory (bytes/s)
system.mem_ctrls10.memReq                       70317                       # Total number of memory requests
system.mem_ctrls10.memWrite                     70317                       # Number of memory writes
system.mem_ctrls10.memWaitCycles                70317                       # Delay stalled at the head of the bank queue
system.mem_ctrls10.totalStalls                  70317                       # Total number of stall cycles
system.mem_ctrls10.stallsPerReq                     1                       # Expected number of stall cycles per request
system.mem_ctrls10.memBankCount          |           0      0.00%      0.00% |           0      0.00%      0.00% |        6806      9.68%      9.68% |           0      0.00%      9.68% |           0      0.00%      9.68% |           0      0.00%      9.68% |           0      0.00%      9.68% |           0      0.00%      9.68% |           0      0.00%      9.68% |           0      0.00%      9.68% |       50612     71.98%     81.66% |           0      0.00%     81.66% |           0      0.00%     81.66% |           0      0.00%     81.66% |           0      0.00%     81.66% |           0      0.00%     81.66% |           0      0.00%     81.66% |           0      0.00%     81.66% |        6368      9.06%     90.71% |           0      0.00%     90.71% |           0      0.00%     90.71% |           0      0.00%     90.71% |           0      0.00%     90.71% |           0      0.00%     90.71% |           0      0.00%     90.71% |           0      0.00%     90.71% |        6531      9.29%    100.00% |           0      0.00%    100.00% |           0      0.00%    100.00% |           0      0.00%    100.00% |           0      0.00%    100.00% |           0      0.00%    100.00% # Number of accesses per bank
system.mem_ctrls10.memBankCount::total          70317                       # Number of accesses per bank
system.mem_ctrls11.pwrStateResidencyTicks::UNDEFINED 254449273134                       # Cumulative time (in ticks) in various power states
system.mem_ctrls11.bytes_written::ruby.dir_cntrl11      1797120                       # Number of bytes written to this memory
system.mem_ctrls11.bytes_written::total       1797120                       # Number of bytes written to this memory
system.mem_ctrls11.num_writes::ruby.dir_cntrl11        28080                       # Number of write requests responded to by this memory
system.mem_ctrls11.num_writes::total            28080                       # Number of write requests responded to by this memory
system.mem_ctrls11.bw_write::ruby.dir_cntrl11      7062783                       # Write bandwidth from this memory (bytes/s)
system.mem_ctrls11.bw_write::total            7062783                       # Write bandwidth from this memory (bytes/s)
system.mem_ctrls11.bw_total::ruby.dir_cntrl11      7062783                       # Total bandwidth to/from this memory (bytes/s)
system.mem_ctrls11.bw_total::total            7062783                       # Total bandwidth to/from this memory (bytes/s)
system.mem_ctrls11.memReq                       28080                       # Total number of memory requests
system.mem_ctrls11.memWrite                     28080                       # Number of memory writes
system.mem_ctrls11.memWaitCycles                28080                       # Delay stalled at the head of the bank queue
system.mem_ctrls11.totalStalls                  28080                       # Total number of stall cycles
system.mem_ctrls11.stallsPerReq                     1                       # Expected number of stall cycles per request
system.mem_ctrls11.memBankCount          |           0      0.00%      0.00% |           0      0.00%      0.00% |        6975     24.84%     24.84% |           0      0.00%     24.84% |           0      0.00%     24.84% |           0      0.00%     24.84% |           0      0.00%     24.84% |           0      0.00%     24.84% |           0      0.00%     24.84% |           0      0.00%     24.84% |        8222     29.28%     54.12% |           0      0.00%     54.12% |           0      0.00%     54.12% |           0      0.00%     54.12% |           0      0.00%     54.12% |           0      0.00%     54.12% |           0      0.00%     54.12% |           0      0.00%     54.12% |        6395     22.77%     76.89% |           0      0.00%     76.89% |           0      0.00%     76.89% |           0      0.00%     76.89% |           0      0.00%     76.89% |           0      0.00%     76.89% |           0      0.00%     76.89% |           0      0.00%     76.89% |        6488     23.11%    100.00% |           0      0.00%    100.00% |           0      0.00%    100.00% |           0      0.00%    100.00% |           0      0.00%    100.00% |           0      0.00%    100.00% # Number of accesses per bank
system.mem_ctrls11.memBankCount::total          28080                       # Number of accesses per bank
system.mem_ctrls12.pwrStateResidencyTicks::UNDEFINED 254449273134                       # Cumulative time (in ticks) in various power states
system.mem_ctrls12.bytes_written::ruby.dir_cntrl12      1797504                       # Number of bytes written to this memory
system.mem_ctrls12.bytes_written::total       1797504                       # Number of bytes written to this memory
system.mem_ctrls12.num_writes::ruby.dir_cntrl12        28086                       # Number of write requests responded to by this memory
system.mem_ctrls12.num_writes::total            28086                       # Number of write requests responded to by this memory
system.mem_ctrls12.bw_write::ruby.dir_cntrl12      7064292                       # Write bandwidth from this memory (bytes/s)
system.mem_ctrls12.bw_write::total            7064292                       # Write bandwidth from this memory (bytes/s)
system.mem_ctrls12.bw_total::ruby.dir_cntrl12      7064292                       # Total bandwidth to/from this memory (bytes/s)
system.mem_ctrls12.bw_total::total            7064292                       # Total bandwidth to/from this memory (bytes/s)
system.mem_ctrls12.memReq                       28086                       # Total number of memory requests
system.mem_ctrls12.memWrite                     28086                       # Number of memory writes
system.mem_ctrls12.memWaitCycles                28086                       # Delay stalled at the head of the bank queue
system.mem_ctrls12.totalStalls                  28086                       # Total number of stall cycles
system.mem_ctrls12.stallsPerReq                     1                       # Expected number of stall cycles per request
system.mem_ctrls12.memBankCount          |           0      0.00%      0.00% |           0      0.00%      0.00% |           0      0.00%      0.00% |        7089     25.24%     25.24% |           0      0.00%     25.24% |           0      0.00%     25.24% |           0      0.00%     25.24% |           0      0.00%     25.24% |           0      0.00%     25.24% |           0      0.00%     25.24% |           0      0.00%     25.24% |        8116     28.90%     54.14% |           0      0.00%     54.14% |           0      0.00%     54.14% |           0      0.00%     54.14% |           0      0.00%     54.14% |           0      0.00%     54.14% |           0      0.00%     54.14% |           0      0.00%     54.14% |        6379     22.71%     76.85% |           0      0.00%     76.85% |           0      0.00%     76.85% |           0      0.00%     76.85% |           0      0.00%     76.85% |           0      0.00%     76.85% |           0      0.00%     76.85% |           0      0.00%     76.85% |        6502     23.15%    100.00% |           0      0.00%    100.00% |           0      0.00%    100.00% |           0      0.00%    100.00% |           0      0.00%    100.00% # Number of accesses per bank
system.mem_ctrls12.memBankCount::total          28086                       # Number of accesses per bank
system.mem_ctrls13.pwrStateResidencyTicks::UNDEFINED 254449273134                       # Cumulative time (in ticks) in various power states
system.mem_ctrls13.bytes_written::ruby.dir_cntrl13      1795712                       # Number of bytes written to this memory
system.mem_ctrls13.bytes_written::total       1795712                       # Number of bytes written to this memory
system.mem_ctrls13.num_writes::ruby.dir_cntrl13        28058                       # Number of write requests responded to by this memory
system.mem_ctrls13.num_writes::total            28058                       # Number of write requests responded to by this memory
system.mem_ctrls13.bw_write::ruby.dir_cntrl13      7057249                       # Write bandwidth from this memory (bytes/s)
system.mem_ctrls13.bw_write::total            7057249                       # Write bandwidth from this memory (bytes/s)
system.mem_ctrls13.bw_total::ruby.dir_cntrl13      7057249                       # Total bandwidth to/from this memory (bytes/s)
system.mem_ctrls13.bw_total::total            7057249                       # Total bandwidth to/from this memory (bytes/s)
system.mem_ctrls13.memReq                       28058                       # Total number of memory requests
system.mem_ctrls13.memWrite                     28058                       # Number of memory writes
system.mem_ctrls13.memWaitCycles                28058                       # Delay stalled at the head of the bank queue
system.mem_ctrls13.totalStalls                  28058                       # Total number of stall cycles
system.mem_ctrls13.stallsPerReq                     1                       # Expected number of stall cycles per request
system.mem_ctrls13.memBankCount          |           0      0.00%      0.00% |           0      0.00%      0.00% |           0      0.00%      0.00% |        7249     25.84%     25.84% |           0      0.00%     25.84% |           0      0.00%     25.84% |           0      0.00%     25.84% |           0      0.00%     25.84% |           0      0.00%     25.84% |           0      0.00%     25.84% |           0      0.00%     25.84% |        7960     28.37%     54.21% |           0      0.00%     54.21% |           0      0.00%     54.21% |           0      0.00%     54.21% |           0      0.00%     54.21% |           0      0.00%     54.21% |           0      0.00%     54.21% |           0      0.00%     54.21% |        6418     22.87%     77.08% |           0      0.00%     77.08% |           0      0.00%     77.08% |           0      0.00%     77.08% |           0      0.00%     77.08% |           0      0.00%     77.08% |           0      0.00%     77.08% |           0      0.00%     77.08% |        6431     22.92%    100.00% |           0      0.00%    100.00% |           0      0.00%    100.00% |           0      0.00%    100.00% |           0      0.00%    100.00% # Number of accesses per bank
system.mem_ctrls13.memBankCount::total          28058                       # Number of accesses per bank
system.mem_ctrls14.pwrStateResidencyTicks::UNDEFINED 254449273134                       # Cumulative time (in ticks) in various power states
system.mem_ctrls14.bytes_written::ruby.dir_cntrl14      1827776                       # Number of bytes written to this memory
system.mem_ctrls14.bytes_written::total       1827776                       # Number of bytes written to this memory
system.mem_ctrls14.num_writes::ruby.dir_cntrl14        28559                       # Number of write requests responded to by this memory
system.mem_ctrls14.num_writes::total            28559                       # Number of write requests responded to by this memory
system.mem_ctrls14.bw_write::ruby.dir_cntrl14      7183263                       # Write bandwidth from this memory (bytes/s)
system.mem_ctrls14.bw_write::total            7183263                       # Write bandwidth from this memory (bytes/s)
system.mem_ctrls14.bw_total::ruby.dir_cntrl14      7183263                       # Total bandwidth to/from this memory (bytes/s)
system.mem_ctrls14.bw_total::total            7183263                       # Total bandwidth to/from this memory (bytes/s)
system.mem_ctrls14.memReq                       28559                       # Total number of memory requests
system.mem_ctrls14.memWrite                     28559                       # Number of memory writes
system.mem_ctrls14.memWaitCycles                28559                       # Delay stalled at the head of the bank queue
system.mem_ctrls14.totalStalls                  28559                       # Total number of stall cycles
system.mem_ctrls14.stallsPerReq                     1                       # Expected number of stall cycles per request
system.mem_ctrls14.memBankCount          |           0      0.00%      0.00% |           0      0.00%      0.00% |           0      0.00%      0.00% |        7476     26.18%     26.18% |           0      0.00%     26.18% |           0      0.00%     26.18% |           0      0.00%     26.18% |           0      0.00%     26.18% |           0      0.00%     26.18% |           0      0.00%     26.18% |           0      0.00%     26.18% |        7920     27.73%     53.91% |           0      0.00%     53.91% |           0      0.00%     53.91% |           0      0.00%     53.91% |           0      0.00%     53.91% |           0      0.00%     53.91% |           0      0.00%     53.91% |           0      0.00%     53.91% |        6489     22.72%     76.63% |           0      0.00%     76.63% |           0      0.00%     76.63% |           0      0.00%     76.63% |           0      0.00%     76.63% |           0      0.00%     76.63% |           0      0.00%     76.63% |           0      0.00%     76.63% |        6674     23.37%    100.00% |           0      0.00%    100.00% |           0      0.00%    100.00% |           0      0.00%    100.00% |           0      0.00%    100.00% # Number of accesses per bank
system.mem_ctrls14.memBankCount::total          28559                       # Number of accesses per bank
system.mem_ctrls15.pwrStateResidencyTicks::UNDEFINED 254449273134                       # Cumulative time (in ticks) in various power states
system.mem_ctrls15.bytes_read::ruby.dir_cntrl15      4510400                       # Number of bytes read from this memory
system.mem_ctrls15.bytes_read::total          4510400                       # Number of bytes read from this memory
system.mem_ctrls15.bytes_written::ruby.dir_cntrl15      1808704                       # Number of bytes written to this memory
system.mem_ctrls15.bytes_written::total       1808704                       # Number of bytes written to this memory
system.mem_ctrls15.num_reads::ruby.dir_cntrl15        70475                       # Number of read requests responded to by this memory
system.mem_ctrls15.num_reads::total             70475                       # Number of read requests responded to by this memory
system.mem_ctrls15.num_writes::ruby.dir_cntrl15        28261                       # Number of write requests responded to by this memory
system.mem_ctrls15.num_writes::total            28261                       # Number of write requests responded to by this memory
system.mem_ctrls15.bw_read::ruby.dir_cntrl15     17726126                       # Total read bandwidth from this memory (bytes/s)
system.mem_ctrls15.bw_read::total            17726126                       # Total read bandwidth from this memory (bytes/s)
system.mem_ctrls15.bw_write::ruby.dir_cntrl15      7108309                       # Write bandwidth from this memory (bytes/s)
system.mem_ctrls15.bw_write::total            7108309                       # Write bandwidth from this memory (bytes/s)
system.mem_ctrls15.bw_total::ruby.dir_cntrl15     24834435                       # Total bandwidth to/from this memory (bytes/s)
system.mem_ctrls15.bw_total::total           24834435                       # Total bandwidth to/from this memory (bytes/s)
system.mem_ctrls15.memReq                       98736                       # Total number of memory requests
system.mem_ctrls15.memRead                      70475                       # Number of memory reads
system.mem_ctrls15.memWrite                     28261                       # Number of memory writes
system.mem_ctrls15.memWaitCycles                98736                       # Delay stalled at the head of the bank queue
system.mem_ctrls15.totalStalls                  98736                       # Total number of stall cycles
system.mem_ctrls15.stallsPerReq                     1                       # Expected number of stall cycles per request
system.mem_ctrls15.memBankCount          |           0      0.00%      0.00% |           0      0.00%      0.00% |           0      0.00%      0.00% |       26265     26.60%     26.60% |           0      0.00%     26.60% |           0      0.00%     26.60% |           0      0.00%     26.60% |           0      0.00%     26.60% |           0      0.00%     26.60% |           0      0.00%     26.60% |           0      0.00%     26.60% |       28804     29.17%     55.77% |           0      0.00%     55.77% |           0      0.00%     55.77% |           0      0.00%     55.77% |           0      0.00%     55.77% |           0      0.00%     55.77% |           0      0.00%     55.77% |           0      0.00%     55.77% |       21518     21.79%     77.57% |           0      0.00%     77.57% |           0      0.00%     77.57% |           0      0.00%     77.57% |           0      0.00%     77.57% |           0      0.00%     77.57% |           0      0.00%     77.57% |           0      0.00%     77.57% |       22149     22.43%    100.00% |           0      0.00%    100.00% |           0      0.00%    100.00% |           0      0.00%    100.00% |           0      0.00%    100.00% # Number of accesses per bank
system.mem_ctrls15.memBankCount::total          98736                       # Number of accesses per bank
system.mem_ctrls16.pwrStateResidencyTicks::UNDEFINED 254449273134                       # Cumulative time (in ticks) in various power states
system.mem_ctrls16.bytes_read::ruby.dir_cntrl16      5249088                       # Number of bytes read from this memory
system.mem_ctrls16.bytes_read::total          5249088                       # Number of bytes read from this memory
system.mem_ctrls16.bytes_written::ruby.dir_cntrl16      1815424                       # Number of bytes written to this memory
system.mem_ctrls16.bytes_written::total       1815424                       # Number of bytes written to this memory
system.mem_ctrls16.num_reads::ruby.dir_cntrl16        82017                       # Number of read requests responded to by this memory
system.mem_ctrls16.num_reads::total             82017                       # Number of read requests responded to by this memory
system.mem_ctrls16.num_writes::ruby.dir_cntrl16        28366                       # Number of write requests responded to by this memory
system.mem_ctrls16.num_writes::total            28366                       # Number of write requests responded to by this memory
system.mem_ctrls16.bw_read::ruby.dir_cntrl16     20629212                       # Total read bandwidth from this memory (bytes/s)
system.mem_ctrls16.bw_read::total            20629212                       # Total read bandwidth from this memory (bytes/s)
system.mem_ctrls16.bw_write::ruby.dir_cntrl16      7134719                       # Write bandwidth from this memory (bytes/s)
system.mem_ctrls16.bw_write::total            7134719                       # Write bandwidth from this memory (bytes/s)
system.mem_ctrls16.bw_total::ruby.dir_cntrl16     27763931                       # Total bandwidth to/from this memory (bytes/s)
system.mem_ctrls16.bw_total::total           27763931                       # Total bandwidth to/from this memory (bytes/s)
system.mem_ctrls16.memReq                      110383                       # Total number of memory requests
system.mem_ctrls16.memRead                      82017                       # Number of memory reads
system.mem_ctrls16.memWrite                     28366                       # Number of memory writes
system.mem_ctrls16.memWaitCycles               110383                       # Delay stalled at the head of the bank queue
system.mem_ctrls16.totalStalls                 110383                       # Total number of stall cycles
system.mem_ctrls16.stallsPerReq                     1                       # Expected number of stall cycles per request
system.mem_ctrls16.memBankCount          |           0      0.00%      0.00% |           0      0.00%      0.00% |           0      0.00%      0.00% |           0      0.00%      0.00% |       40303     36.51%     36.51% |           0      0.00%     36.51% |           0      0.00%     36.51% |           0      0.00%     36.51% |           0      0.00%     36.51% |           0      0.00%     36.51% |           0      0.00%     36.51% |           0      0.00%     36.51% |       26248     23.78%     60.29% |           0      0.00%     60.29% |           0      0.00%     60.29% |           0      0.00%     60.29% |           0      0.00%     60.29% |           0      0.00%     60.29% |           0      0.00%     60.29% |           0      0.00%     60.29% |       21565     19.54%     79.83% |           0      0.00%     79.83% |           0      0.00%     79.83% |           0      0.00%     79.83% |           0      0.00%     79.83% |           0      0.00%     79.83% |           0      0.00%     79.83% |           0      0.00%     79.83% |       22267     20.17%    100.00% |           0      0.00%    100.00% |           0      0.00%    100.00% |           0      0.00%    100.00% # Number of accesses per bank
system.mem_ctrls16.memBankCount::total         110383                       # Number of accesses per bank
system.mem_ctrls17.pwrStateResidencyTicks::UNDEFINED 254449273134                       # Cumulative time (in ticks) in various power states
system.mem_ctrls17.bytes_written::ruby.dir_cntrl17      1811072                       # Number of bytes written to this memory
system.mem_ctrls17.bytes_written::total       1811072                       # Number of bytes written to this memory
system.mem_ctrls17.num_writes::ruby.dir_cntrl17        28298                       # Number of write requests responded to by this memory
system.mem_ctrls17.num_writes::total            28298                       # Number of write requests responded to by this memory
system.mem_ctrls17.bw_write::ruby.dir_cntrl17      7117615                       # Write bandwidth from this memory (bytes/s)
system.mem_ctrls17.bw_write::total            7117615                       # Write bandwidth from this memory (bytes/s)
system.mem_ctrls17.bw_total::ruby.dir_cntrl17      7117615                       # Total bandwidth to/from this memory (bytes/s)
system.mem_ctrls17.bw_total::total            7117615                       # Total bandwidth to/from this memory (bytes/s)
system.mem_ctrls17.memReq                       28298                       # Total number of memory requests
system.mem_ctrls17.memWrite                     28298                       # Number of memory writes
system.mem_ctrls17.memWaitCycles                28298                       # Delay stalled at the head of the bank queue
system.mem_ctrls17.totalStalls                  28298                       # Total number of stall cycles
system.mem_ctrls17.stallsPerReq                     1                       # Expected number of stall cycles per request
system.mem_ctrls17.memBankCount          |           0      0.00%      0.00% |           0      0.00%      0.00% |           0      0.00%      0.00% |           0      0.00%      0.00% |        7993     28.25%     28.25% |           0      0.00%     28.25% |           0      0.00%     28.25% |           0      0.00%     28.25% |           0      0.00%     28.25% |           0      0.00%     28.25% |           0      0.00%     28.25% |           0      0.00%     28.25% |        7356     25.99%     54.24% |           0      0.00%     54.24% |           0      0.00%     54.24% |           0      0.00%     54.24% |           0      0.00%     54.24% |           0      0.00%     54.24% |           0      0.00%     54.24% |           0      0.00%     54.24% |        6423     22.70%     76.94% |           0      0.00%     76.94% |           0      0.00%     76.94% |           0      0.00%     76.94% |           0      0.00%     76.94% |           0      0.00%     76.94% |           0      0.00%     76.94% |           0      0.00%     76.94% |        6526     23.06%    100.00% |           0      0.00%    100.00% |           0      0.00%    100.00% |           0      0.00%    100.00% # Number of accesses per bank
system.mem_ctrls17.memBankCount::total          28298                       # Number of accesses per bank
system.mem_ctrls18.pwrStateResidencyTicks::UNDEFINED 254449273134                       # Cumulative time (in ticks) in various power states
system.mem_ctrls18.bytes_written::ruby.dir_cntrl18      2533056                       # Number of bytes written to this memory
system.mem_ctrls18.bytes_written::total       2533056                       # Number of bytes written to this memory
system.mem_ctrls18.num_writes::ruby.dir_cntrl18        39579                       # Number of write requests responded to by this memory
system.mem_ctrls18.num_writes::total            39579                       # Number of write requests responded to by this memory
system.mem_ctrls18.bw_write::ruby.dir_cntrl18      9955053                       # Write bandwidth from this memory (bytes/s)
system.mem_ctrls18.bw_write::total            9955053                       # Write bandwidth from this memory (bytes/s)
system.mem_ctrls18.bw_total::ruby.dir_cntrl18      9955053                       # Total bandwidth to/from this memory (bytes/s)
system.mem_ctrls18.bw_total::total            9955053                       # Total bandwidth to/from this memory (bytes/s)
system.mem_ctrls18.memReq                       39579                       # Total number of memory requests
system.mem_ctrls18.memWrite                     39579                       # Number of memory writes
system.mem_ctrls18.memWaitCycles                39579                       # Delay stalled at the head of the bank queue
system.mem_ctrls18.totalStalls                  39579                       # Total number of stall cycles
system.mem_ctrls18.stallsPerReq                     1                       # Expected number of stall cycles per request
system.mem_ctrls18.memBankCount          |           0      0.00%      0.00% |           0      0.00%      0.00% |           0      0.00%      0.00% |           0      0.00%      0.00% |       19383     48.97%     48.97% |           0      0.00%     48.97% |           0      0.00%     48.97% |           0      0.00%     48.97% |           0      0.00%     48.97% |           0      0.00%     48.97% |           0      0.00%     48.97% |           0      0.00%     48.97% |        7253     18.33%     67.30% |           0      0.00%     67.30% |           0      0.00%     67.30% |           0      0.00%     67.30% |           0      0.00%     67.30% |           0      0.00%     67.30% |           0      0.00%     67.30% |           0      0.00%     67.30% |        6460     16.32%     83.62% |           0      0.00%     83.62% |           0      0.00%     83.62% |           0      0.00%     83.62% |           0      0.00%     83.62% |           0      0.00%     83.62% |           0      0.00%     83.62% |           0      0.00%     83.62% |        6483     16.38%    100.00% |           0      0.00%    100.00% |           0      0.00%    100.00% |           0      0.00%    100.00% # Number of accesses per bank
system.mem_ctrls18.memBankCount::total          39579                       # Number of accesses per bank
system.mem_ctrls19.pwrStateResidencyTicks::UNDEFINED 254449273134                       # Cumulative time (in ticks) in various power states
system.mem_ctrls19.bytes_written::ruby.dir_cntrl19      1803200                       # Number of bytes written to this memory
system.mem_ctrls19.bytes_written::total       1803200                       # Number of bytes written to this memory
system.mem_ctrls19.num_writes::ruby.dir_cntrl19        28175                       # Number of write requests responded to by this memory
system.mem_ctrls19.num_writes::total            28175                       # Number of write requests responded to by this memory
system.mem_ctrls19.bw_write::ruby.dir_cntrl19      7086678                       # Write bandwidth from this memory (bytes/s)
system.mem_ctrls19.bw_write::total            7086678                       # Write bandwidth from this memory (bytes/s)
system.mem_ctrls19.bw_total::ruby.dir_cntrl19      7086678                       # Total bandwidth to/from this memory (bytes/s)
system.mem_ctrls19.bw_total::total            7086678                       # Total bandwidth to/from this memory (bytes/s)
system.mem_ctrls19.memReq                       28175                       # Total number of memory requests
system.mem_ctrls19.memWrite                     28175                       # Number of memory writes
system.mem_ctrls19.memWaitCycles                28175                       # Delay stalled at the head of the bank queue
system.mem_ctrls19.totalStalls                  28175                       # Total number of stall cycles
system.mem_ctrls19.stallsPerReq                     1                       # Expected number of stall cycles per request
system.mem_ctrls19.memBankCount          |           0      0.00%      0.00% |           0      0.00%      0.00% |           0      0.00%      0.00% |           0      0.00%      0.00% |        8092     28.72%     28.72% |           0      0.00%     28.72% |           0      0.00%     28.72% |           0      0.00%     28.72% |           0      0.00%     28.72% |           0      0.00%     28.72% |           0      0.00%     28.72% |           0      0.00%     28.72% |        7133     25.32%     54.04% |           0      0.00%     54.04% |           0      0.00%     54.04% |           0      0.00%     54.04% |           0      0.00%     54.04% |           0      0.00%     54.04% |           0      0.00%     54.04% |           0      0.00%     54.04% |        6466     22.95%     76.99% |           0      0.00%     76.99% |           0      0.00%     76.99% |           0      0.00%     76.99% |           0      0.00%     76.99% |           0      0.00%     76.99% |           0      0.00%     76.99% |           0      0.00%     76.99% |        6484     23.01%    100.00% |           0      0.00%    100.00% |           0      0.00%    100.00% |           0      0.00%    100.00% # Number of accesses per bank
system.mem_ctrls19.memBankCount::total          28175                       # Number of accesses per bank
system.mem_ctrls20.pwrStateResidencyTicks::UNDEFINED 254449273134                       # Cumulative time (in ticks) in various power states
system.mem_ctrls20.bytes_written::ruby.dir_cntrl20      1799680                       # Number of bytes written to this memory
system.mem_ctrls20.bytes_written::total       1799680                       # Number of bytes written to this memory
system.mem_ctrls20.num_writes::ruby.dir_cntrl20        28120                       # Number of write requests responded to by this memory
system.mem_ctrls20.num_writes::total            28120                       # Number of write requests responded to by this memory
system.mem_ctrls20.bw_write::ruby.dir_cntrl20      7072844                       # Write bandwidth from this memory (bytes/s)
system.mem_ctrls20.bw_write::total            7072844                       # Write bandwidth from this memory (bytes/s)
system.mem_ctrls20.bw_total::ruby.dir_cntrl20      7072844                       # Total bandwidth to/from this memory (bytes/s)
system.mem_ctrls20.bw_total::total            7072844                       # Total bandwidth to/from this memory (bytes/s)
system.mem_ctrls20.memReq                       28120                       # Total number of memory requests
system.mem_ctrls20.memWrite                     28120                       # Number of memory writes
system.mem_ctrls20.memWaitCycles                28120                       # Delay stalled at the head of the bank queue
system.mem_ctrls20.totalStalls                  28120                       # Total number of stall cycles
system.mem_ctrls20.stallsPerReq                     1                       # Expected number of stall cycles per request
system.mem_ctrls20.memBankCount          |           0      0.00%      0.00% |           0      0.00%      0.00% |           0      0.00%      0.00% |           0      0.00%      0.00% |           0      0.00%      0.00% |        8329     29.62%     29.62% |           0      0.00%     29.62% |           0      0.00%     29.62% |           0      0.00%     29.62% |           0      0.00%     29.62% |           0      0.00%     29.62% |           0      0.00%     29.62% |           0      0.00%     29.62% |        7005     24.91%     54.53% |           0      0.00%     54.53% |           0      0.00%     54.53% |           0      0.00%     54.53% |           0      0.00%     54.53% |           0      0.00%     54.53% |           0      0.00%     54.53% |           0      0.00%     54.53% |        6473     23.02%     77.55% |           0      0.00%     77.55% |           0      0.00%     77.55% |           0      0.00%     77.55% |           0      0.00%     77.55% |           0      0.00%     77.55% |           0      0.00%     77.55% |           0      0.00%     77.55% |        6313     22.45%    100.00% |           0      0.00%    100.00% |           0      0.00%    100.00% # Number of accesses per bank
system.mem_ctrls20.memBankCount::total          28120                       # Number of accesses per bank
system.mem_ctrls21.pwrStateResidencyTicks::UNDEFINED 254449273134                       # Cumulative time (in ticks) in various power states
system.mem_ctrls21.bytes_written::ruby.dir_cntrl21      1789248                       # Number of bytes written to this memory
system.mem_ctrls21.bytes_written::total       1789248                       # Number of bytes written to this memory
system.mem_ctrls21.num_writes::ruby.dir_cntrl21        27957                       # Number of write requests responded to by this memory
system.mem_ctrls21.num_writes::total            27957                       # Number of write requests responded to by this memory
system.mem_ctrls21.bw_write::ruby.dir_cntrl21      7031846                       # Write bandwidth from this memory (bytes/s)
system.mem_ctrls21.bw_write::total            7031846                       # Write bandwidth from this memory (bytes/s)
system.mem_ctrls21.bw_total::ruby.dir_cntrl21      7031846                       # Total bandwidth to/from this memory (bytes/s)
system.mem_ctrls21.bw_total::total            7031846                       # Total bandwidth to/from this memory (bytes/s)
system.mem_ctrls21.memReq                       27957                       # Total number of memory requests
system.mem_ctrls21.memWrite                     27957                       # Number of memory writes
system.mem_ctrls21.memWaitCycles                27957                       # Delay stalled at the head of the bank queue
system.mem_ctrls21.totalStalls                  27957                       # Total number of stall cycles
system.mem_ctrls21.stallsPerReq                     1                       # Expected number of stall cycles per request
system.mem_ctrls21.memBankCount          |           0      0.00%      0.00% |           0      0.00%      0.00% |           0      0.00%      0.00% |           0      0.00%      0.00% |           0      0.00%      0.00% |        8203     29.34%     29.34% |           0      0.00%     29.34% |           0      0.00%     29.34% |           0      0.00%     29.34% |           0      0.00%     29.34% |           0      0.00%     29.34% |           0      0.00%     29.34% |           0      0.00%     29.34% |        6889     24.64%     53.98% |           0      0.00%     53.98% |           0      0.00%     53.98% |           0      0.00%     53.98% |           0      0.00%     53.98% |           0      0.00%     53.98% |           0      0.00%     53.98% |           0      0.00%     53.98% |        6466     23.13%     77.11% |           0      0.00%     77.11% |           0      0.00%     77.11% |           0      0.00%     77.11% |           0      0.00%     77.11% |           0      0.00%     77.11% |           0      0.00%     77.11% |           0      0.00%     77.11% |        6399     22.89%    100.00% |           0      0.00%    100.00% |           0      0.00%    100.00% # Number of accesses per bank
system.mem_ctrls21.memBankCount::total          27957                       # Number of accesses per bank
system.mem_ctrls22.pwrStateResidencyTicks::UNDEFINED 254449273134                       # Cumulative time (in ticks) in various power states
system.mem_ctrls22.bytes_written::ruby.dir_cntrl22      1789952                       # Number of bytes written to this memory
system.mem_ctrls22.bytes_written::total       1789952                       # Number of bytes written to this memory
system.mem_ctrls22.num_writes::ruby.dir_cntrl22        27968                       # Number of write requests responded to by this memory
system.mem_ctrls22.num_writes::total            27968                       # Number of write requests responded to by this memory
system.mem_ctrls22.bw_write::ruby.dir_cntrl22      7034612                       # Write bandwidth from this memory (bytes/s)
system.mem_ctrls22.bw_write::total            7034612                       # Write bandwidth from this memory (bytes/s)
system.mem_ctrls22.bw_total::ruby.dir_cntrl22      7034612                       # Total bandwidth to/from this memory (bytes/s)
system.mem_ctrls22.bw_total::total            7034612                       # Total bandwidth to/from this memory (bytes/s)
system.mem_ctrls22.memReq                       27968                       # Total number of memory requests
system.mem_ctrls22.memWrite                     27968                       # Number of memory writes
system.mem_ctrls22.memWaitCycles                27968                       # Delay stalled at the head of the bank queue
system.mem_ctrls22.totalStalls                  27968                       # Total number of stall cycles
system.mem_ctrls22.stallsPerReq                     1                       # Expected number of stall cycles per request
system.mem_ctrls22.memBankCount          |           0      0.00%      0.00% |           0      0.00%      0.00% |           0      0.00%      0.00% |           0      0.00%      0.00% |           0      0.00%      0.00% |        8341     29.82%     29.82% |           0      0.00%     29.82% |           0      0.00%     29.82% |           0      0.00%     29.82% |           0      0.00%     29.82% |           0      0.00%     29.82% |           0      0.00%     29.82% |           0      0.00%     29.82% |        6740     24.10%     53.92% |           0      0.00%     53.92% |           0      0.00%     53.92% |           0      0.00%     53.92% |           0      0.00%     53.92% |           0      0.00%     53.92% |           0      0.00%     53.92% |           0      0.00%     53.92% |        6557     23.44%     77.37% |           0      0.00%     77.37% |           0      0.00%     77.37% |           0      0.00%     77.37% |           0      0.00%     77.37% |           0      0.00%     77.37% |           0      0.00%     77.37% |           0      0.00%     77.37% |        6330     22.63%    100.00% |           0      0.00%    100.00% |           0      0.00%    100.00% # Number of accesses per bank
system.mem_ctrls22.memBankCount::total          27968                       # Number of accesses per bank
system.mem_ctrls23.pwrStateResidencyTicks::UNDEFINED 254449273134                       # Cumulative time (in ticks) in various power states
system.mem_ctrls23.bytes_read::ruby.dir_cntrl23      4434688                       # Number of bytes read from this memory
system.mem_ctrls23.bytes_read::total          4434688                       # Number of bytes read from this memory
system.mem_ctrls23.bytes_written::ruby.dir_cntrl23      1775360                       # Number of bytes written to this memory
system.mem_ctrls23.bytes_written::total       1775360                       # Number of bytes written to this memory
system.mem_ctrls23.num_reads::ruby.dir_cntrl23        69292                       # Number of read requests responded to by this memory
system.mem_ctrls23.num_reads::total             69292                       # Number of read requests responded to by this memory
system.mem_ctrls23.num_writes::ruby.dir_cntrl23        27740                       # Number of write requests responded to by this memory
system.mem_ctrls23.num_writes::total            27740                       # Number of write requests responded to by this memory
system.mem_ctrls23.bw_read::ruby.dir_cntrl23     17428574                       # Total read bandwidth from this memory (bytes/s)
system.mem_ctrls23.bw_read::total            17428574                       # Total read bandwidth from this memory (bytes/s)
system.mem_ctrls23.bw_write::ruby.dir_cntrl23      6977265                       # Write bandwidth from this memory (bytes/s)
system.mem_ctrls23.bw_write::total            6977265                       # Write bandwidth from this memory (bytes/s)
system.mem_ctrls23.bw_total::ruby.dir_cntrl23     24405839                       # Total bandwidth to/from this memory (bytes/s)
system.mem_ctrls23.bw_total::total           24405839                       # Total bandwidth to/from this memory (bytes/s)
system.mem_ctrls23.memReq                       97032                       # Total number of memory requests
system.mem_ctrls23.memRead                      69292                       # Number of memory reads
system.mem_ctrls23.memWrite                     27740                       # Number of memory writes
system.mem_ctrls23.memWaitCycles                97032                       # Delay stalled at the head of the bank queue
system.mem_ctrls23.totalStalls                  97032                       # Total number of stall cycles
system.mem_ctrls23.stallsPerReq                     1                       # Expected number of stall cycles per request
[...]
system.ruby.L1Cache_Controller.Load::total      1856674                      
system.ruby.L1Cache_Controller.Ifetch    |    58578226    100.00%    100.00% |           0      0.00%    100.00% |           0      0.00%    100.00% |           0      0.00%    100.00% |           0      0.00%    100.00% |           0      0.00%    100.00% |           0      0.00%    100.00% |           0      0.00%    100.00% |           0      0.00%    100.00% |           0      0.00%    100.00% |           0      0.00%    100.00% |           0      0.00%    100.00% |           0      0.00%    100.00% |           0      0.00%    100.00% |           0      0.00%    100.00% |           0      0.00%    100.00% |           0      0.00%    100.00% |           0      0.00%    100.00% |           0      0.00%    100.00% |           0      0.00%    100.00% |           0      0.00%    100.00% |           0      0.00%    100.00% |           0      0.00%    100.00% |           0      0.00%    100.00% |           0      0.00%    100.00% |           0      0.00%    100.00% |           0      0.00%    100.00% |           0      0.00%    100.00% |           0      0.00%    100.00% |           0      0.00%    100.00% |           0      0.00%    100.00% |           0      0.00%    100.00%
system.ruby.L1Cache_Controller.Ifetch::total     58578226                      
system.ruby.L1Cache_Controller.Store     |     2903685    100.00%    100.00% |           0      0.00%    100.00% |           0      0.00%    100.00% |           0      0.00%    100.00% |           0      0.00%    100.00% |           0      0.00%    100.00% |           0      0.00%    100.00% |           0      0.00%    100.00% |           0      0.00%    100.00% |           0      0.00%    100.00% |           0      0.00%    100.00% |           0      0.00%    100.00% |           0      0.00%    100.00% |           0      0.00%    100.00% |           0      0.00%    100.00% |           0      0.00%    100.00% |           0      0.00%    100.00% |           0      0.00%    100.00% |           0      0.00%    100.00% |           0      0.00%    100.00% |           0      0.00%    100.00% |           0      0.00%    100.00% |           0      0.00%    100.00% |           0      0.00%    100.00% |           0      0.00%    100.00% |           0      0.00%    100.00% |           0      0.00%    100.00% |           0      0.00%    100.00% |           0      0.00%    100.00% |           0      0.00%    100.00% |           0      0.00%    100.00% |           0      0.00%    100.00%
system.ruby.L1Cache_Controller.Store::total      2903685                      
system.ruby.L1Cache_Controller.Data      |     1532979    100.00%    100.00% |           0      0.00%    100.00% |           0      0.00%    100.00% |           0      0.00%    100.00% |           0      0.00%    100.00% |           0      0.00%    100.00% |           0      0.00%    100.00% |           0      0.00%    100.00% |           0      0.00%    100.00% |           0      0.00%    100.00% |           0      0.00%    100.00% |           0      0.00%    100.00% |           0      0.00%    100.00% |           0      0.00%    100.00% |           0      0.00%    100.00% |           0      0.00%    100.00% |           0      0.00%    100.00% |           0      0.00%    100.00% |           0      0.00%    100.00% |           0      0.00%    100.00% |           0      0.00%    100.00% |           0      0.00%    100.00% |           0      0.00%    100.00% |           0      0.00%    100.00% |           0      0.00%    100.00% |           0      0.00%    100.00% |           0      0.00%    100.00% |           0      0.00%    100.00% |           0      0.00%    100.00% |           0      0.00%    100.00% |           0      0.00%    100.00% |           0      0.00%    100.00%
system.ruby.L1Cache_Controller.Data::total      1532979                      
system.ruby.L1Cache_Controller.Replacement |     1532851    100.00%    100.00% |           0      0.00%    100.00% |           0      0.00%    100.00% |           0      0.00%    100.00% |           0      0.00%    100.00% |           0      0.00%    100.00% |           0      0.00%    100.00% |           0      0.00%    100.00% |           0      0.00%    100.00% |           0      0.00%    100.00% |           0      0.00%    100.00% |           0      0.00%    100.00% |           0      0.00%    100.00% |           0      0.00%    100.00% |           0      0.00%    100.00% |           0      0.00%    100.00% |           0      0.00%    100.00% |           0      0.00%    100.00% |           0      0.00%    100.00% |           0      0.00%    100.00% |           0      0.00%    100.00% |           0      0.00%    100.00% |           0      0.00%    100.00% |           0      0.00%    100.00% |           0      0.00%    100.00% |           0      0.00%    100.00% |           0      0.00%    100.00% |           0      0.00%    100.00% |           0      0.00%    100.00% |           0      0.00%    100.00% |           0      0.00%    100.00% |           0      0.00%    100.00%
system.ruby.L1Cache_Controller.Replacement::total      1532851                      
system.ruby.L1Cache_Controller.Writeback_Ack |     1532851    100.00%    100.00% |           0      0.00%    100.00% |           0      0.00%    100.00% |           0      0.00%    100.00% |           0      0.00%    100.00% |           0      0.00%    100.00% |           0      0.00%    100.00% |           0      0.00%    100.00% |           0      0.00%    100.00% |           0      0.00%    100.00% |           0      0.00%    100.00% |           0      0.00%    100.00% |           0      0.00%    100.00% |           0      0.00%    100.00% |           0      0.00%    100.00% |           0      0.00%    100.00% |           0      0.00%    100.00% |           0      0.00%    100.00% |           0      0.00%    100.00% |           0      0.00%    100.00% |           0      0.00%    100.00% |           0      0.00%    100.00% |           0      0.00%    100.00% |           0      0.00%    100.00% |           0      0.00%    100.00% |           0      0.00%    100.00% |           0      0.00%    100.00% |           0      0.00%    100.00% |           0      0.00%    100.00% |           0      0.00%    100.00% |           0      0.00%    100.00% |           0      0.00%    100.00%
system.ruby.L1Cache_Controller.Writeback_Ack::total      1532851                      
system.ruby.L1Cache_Controller.I.Load    |      628483    100.00%    100.00% |           0      0.00%    100.00% |           0      0.00%    100.00% |           0      0.00%    100.00% |           0      0.00%    100.00% |           0      0.00%    100.00% |           0      0.00%    100.00% |           0      0.00%    100.00% |           0      0.00%    100.00% |           0      0.00%    100.00% |           0      0.00%    100.00% |           0      0.00%    100.00% |           0      0.00%    100.00% |           0      0.00%    100.00% |           0      0.00%    100.00% |           0      0.00%    100.00% |           0      0.00%    100.00% |           0      0.00%    100.00% |           0      0.00%    100.00% |           0      0.00%    100.00% |           0      0.00%    100.00% |           0      0.00%    100.00% |           0      0.00%    100.00% |           0      0.00%    100.00% |           0      0.00%    100.00% |           0      0.00%    100.00% |           0      0.00%    100.00% |           0      0.00%    100.00% |           0      0.00%    100.00% |           0      0.00%    100.00% |           0      0.00%    100.00% |           0      0.00%    100.00%
system.ruby.L1Cache_Controller.I.Load::total       628483                      
system.ruby.L1Cache_Controller.I.Ifetch  |      330896    100.00%    100.00% |           0      0.00%    100.00% |           0      0.00%    100.00% |           0      0.00%    100.00% |           0      0.00%    100.00% |           0      0.00%    100.00% |           0      0.00%    100.00% |           0      0.00%    100.00% |           0      0.00%    100.00% |           0      0.00%    100.00% |           0      0.00%    100.00% |           0      0.00%    100.00% |           0      0.00%    100.00% |           0      0.00%    100.00% |           0      0.00%    100.00% |           0      0.00%    100.00% |           0      0.00%    100.00% |           0      0.00%    100.00% |           0      0.00%    100.00% |           0      0.00%    100.00% |           0      0.00%    100.00% |           0      0.00%    100.00% |           0      0.00%    100.00% |           0      0.00%    100.00% |           0      0.00%    100.00% |           0      0.00%    100.00% |           0      0.00%    100.00% |           0      0.00%    100.00% |           0      0.00%    100.00% |           0      0.00%    100.00% |           0      0.00%    100.00% |           0      0.00%    100.00%
system.ruby.L1Cache_Controller.I.Ifetch::total       330896                      
system.ruby.L1Cache_Controller.I.Store   |      573600    100.00%    100.00% |           0      0.00%    100.00% |           0      0.00%    100.00% |           0      0.00%    100.00% |           0      0.00%    100.00% |           0      0.00%    100.00% |           0      0.00%    100.00% |           0      0.00%    100.00% |           0      0.00%    100.00% |           0      0.00%    100.00% |           0      0.00%    100.00% |           0      0.00%    100.00% |           0      0.00%    100.00% |           0      0.00%    100.00% |           0      0.00%    100.00% |           0      0.00%    100.00% |           0      0.00%    100.00% |           0      0.00%    100.00% |           0      0.00%    100.00% |           0      0.00%    100.00% |           0      0.00%    100.00% |           0      0.00%    100.00% |           0      0.00%    100.00% |           0      0.00%    100.00% |           0      0.00%    100.00% |           0      0.00%    100.00% |           0      0.00%    100.00% |           0      0.00%    100.00% |           0      0.00%    100.00% |           0      0.00%    100.00% |           0      0.00%    100.00% |           0      0.00%    100.00%
system.ruby.L1Cache_Controller.I.Store::total       573600                      
system.ruby.L1Cache_Controller.M.Load    |     1228191    100.00%    100.00% |           0      0.00%    100.00% |           0      0.00%    100.00% |           0      0.00%    100.00% |           0      0.00%    100.00% |           0      0.00%    100.00% |           0      0.00%    100.00% |           0      0.00%    100.00% |           0      0.00%    100.00% |           0      0.00%    100.00% |           0      0.00%    100.00% |           0      0.00%    100.00% |           0      0.00%    100.00% |           0      0.00%    100.00% |           0      0.00%    100.00% |           0      0.00%    100.00% |           0      0.00%    100.00% |           0      0.00%    100.00% |           0      0.00%    100.00% |           0      0.00%    100.00% |           0      0.00%    100.00% |           0      0.00%    100.00% |           0      0.00%    100.00% |           0      0.00%    100.00% |           0      0.00%    100.00% |           0      0.00%    100.00% |           0      0.00%    100.00% |           0      0.00%    100.00% |           0      0.00%    100.00% |           0      0.00%    100.00% |           0      0.00%    100.00% |           0      0.00%    100.00%
system.ruby.L1Cache_Controller.M.Load::total      1228191                      
system.ruby.L1Cache_Controller.M.Ifetch  |    58247330    100.00%    100.00% |           0      0.00%    100.00% |           0      0.00%    100.00% |           0      0.00%    100.00% |           0      0.00%    100.00% |           0      0.00%    100.00% |           0      0.00%    100.00% |           0      0.00%    100.00% |           0      0.00%    100.00% |           0      0.00%    100.00% |           0      0.00%    100.00% |           0      0.00%    100.00% |           0      0.00%    100.00% |           0      0.00%    100.00% |           0      0.00%    100.00% |           0      0.00%    100.00% |           0      0.00%    100.00% |           0      0.00%    100.00% |           0      0.00%    100.00% |           0      0.00%    100.00% |           0      0.00%    100.00% |           0      0.00%    100.00% |           0      0.00%    100.00% |           0      0.00%    100.00% |           0      0.00%    100.00% |           0      0.00%    100.00% |           0      0.00%    100.00% |           0      0.00%    100.00% |           0      0.00%    100.00% |           0      0.00%    100.00% |           0      0.00%    100.00% |           0      0.00%    100.00%
system.ruby.L1Cache_Controller.M.Ifetch::total     58247330                      
system.ruby.L1Cache_Controller.M.Store   |     2330085    100.00%    100.00% |           0      0.00%    100.00% |           0      0.00%    100.00% |           0      0.00%    100.00% |           0      0.00%    100.00% |           0      0.00%    100.00% |           0      0.00%    100.00% |           0      0.00%    100.00% |           0      0.00%    100.00% |           0      0.00%    100.00% |           0      0.00%    100.00% |           0      0.00%    100.00% |           0      0.00%    100.00% |           0      0.00%    100.00% |           0      0.00%    100.00% |           0      0.00%    100.00% |           0      0.00%    100.00% |           0      0.00%    100.00% |           0      0.00%    100.00% |           0      0.00%    100.00% |           0      0.00%    100.00% |           0      0.00%    100.00% |           0      0.00%    100.00% |           0      0.00%    100.00% |           0      0.00%    100.00% |           0      0.00%    100.00% |           0      0.00%    100.00% |           0      0.00%    100.00% |           0      0.00%    100.00% |           0      0.00%    100.00% |           0      0.00%    100.00% |           0      0.00%    100.00%
system.ruby.L1Cache_Controller.M.Store::total      2330085                      
system.ruby.L1Cache_Controller.M.Replacement |     1532851    100.00%    100.00% |           0      0.00%    100.00% |           0      0.00%    100.00% |           0      0.00%    100.00% |           0      0.00%    100.00% |           0      0.00%    100.00% |           0      0.00%    100.00% |           0      0.00%    100.00% |           0      0.00%    100.00% |           0      0.00%    100.00% |           0      0.00%    100.00% |           0      0.00%    100.00% |           0      0.00%    100.00% |           0      0.00%    100.00% |           0      0.00%    100.00% |           0      0.00%    100.00% |           0      0.00%    100.00% |           0      0.00%    100.00% |           0      0.00%    100.00% |           0      0.00%    100.00% |           0      0.00%    100.00% |           0      0.00%    100.00% |           0      0.00%    100.00% |           0      0.00%    100.00% |           0      0.00%    100.00% |           0      0.00%    100.00% |           0      0.00%    100.00% |           0      0.00%    100.00% |           0      0.00%    100.00% |           0      0.00%    100.00% |           0      0.00%    100.00% |           0      0.00%    100.00%
system.ruby.L1Cache_Controller.M.Replacement::total      1532851                      
system.ruby.L1Cache_Controller.MI.Writeback_Ack |     1532851    100.00%    100.00% |           0      0.00%    100.00% |           0      0.00%    100.00% |           0      0.00%    100.00% |           0      0.00%    100.00% |           0      0.00%    100.00% |           0      0.00%    100.00% |           0      0.00%    100.00% |           0      0.00%    100.00% |           0      0.00%    100.00% |           0      0.00%    100.00% |           0      0.00%    100.00% |           0      0.00%    100.00% |           0      0.00%    100.00% |           0      0.00%    100.00% |           0      0.00%    100.00% |           0      0.00%    100.00% |           0      0.00%    100.00% |           0      0.00%    100.00% |           0      0.00%    100.00% |           0      0.00%    100.00% |           0      0.00%    100.00% |           0      0.00%    100.00% |           0      0.00%    100.00% |           0      0.00%    100.00% |           0      0.00%    100.00% |           0      0.00%    100.00% |           0      0.00%    100.00% |           0      0.00%    100.00% |           0      0.00%    100.00% |           0      0.00%    100.00% |           0      0.00%    100.00%
system.ruby.L1Cache_Controller.MI.Writeback_Ack::total      1532851                      
system.ruby.L1Cache_Controller.IS.Data   |      959379    100.00%    100.00% |           0      0.00%    100.00% |           0      0.00%    100.00% |           0      0.00%    100.00% |           0      0.00%    100.00% |           0      0.00%    100.00% |           0      0.00%    100.00% |           0      0.00%    100.00% |           0      0.00%    100.00% |           0      0.00%    100.00% |           0      0.00%    100.00% |           0      0.00%    100.00% |           0      0.00%    100.00% |           0      0.00%    100.00% |           0      0.00%    100.00% |           0      0.00%    100.00% |           0      0.00%    100.00% |           0      0.00%    100.00% |           0      0.00%    100.00% |           0      0.00%    100.00% |           0      0.00%    100.00% |           0      0.00%    100.00% |           0      0.00%    100.00% |           0      0.00%    100.00% |           0      0.00%    100.00% |           0      0.00%    100.00% |           0      0.00%    100.00% |           0      0.00%    100.00% |           0      0.00%    100.00% |           0      0.00%    100.00% |           0      0.00%    100.00% |           0      0.00%    100.00%
system.ruby.L1Cache_Controller.IS.Data::total       959379                      
system.ruby.L1Cache_Controller.IM.Data   |      573600    100.00%    100.00% |           0      0.00%    100.00% |           0      0.00%    100.00% |           0      0.00%    100.00% |           0      0.00%    100.00% |           0      0.00%    100.00% |           0      0.00%    100.00% |           0      0.00%    100.00% |           0      0.00%    100.00% |           0      0.00%    100.00% |           0      0.00%    100.00% |           0      0.00%    100.00% |           0      0.00%    100.00% |           0      0.00%    100.00% |           0      0.00%    100.00% |           0      0.00%    100.00% |           0      0.00%    100.00% |           0      0.00%    100.00% |           0      0.00%    100.00% |           0      0.00%    100.00% |           0      0.00%    100.00% |           0      0.00%    100.00% |           0      0.00%    100.00% |           0      0.00%    100.00% |           0      0.00%    100.00% |           0      0.00%    100.00% |           0      0.00%    100.00% |           0      0.00%    100.00% |           0      0.00%    100.00% |           0      0.00%    100.00% |           0      0.00%    100.00% |           0      0.00%    100.00%
system.ruby.L1Cache_Controller.IM.Data::total       573600                      

---------- End Simulation Statistics   ----------
